MODEL 1
REMARK VINA RESULT:    -8.302      0.000      0.000
REMARK INTER + INTRA:         -27.894
REMARK INTER:                 -12.670
REMARK INTRA:                 -15.224
REMARK UNBOUND:               -15.224
REMARK  11 active torsions:
REMARK  status: ('A' for Active; 'I' for Inactive)
REMARK    1  A    between atoms: N10_17  and  C1'_19 
REMARK    2  A    between atoms: C1'_19  and  C2'_20 
REMARK    3  A    between atoms: C2'_20  and  O2'_21 
REMARK    4  A    between atoms: C2'_20  and  C3'_22 
REMARK    5  A    between atoms: C3'_22  and  O3'_23 
REMARK    6  A    between atoms: C3'_22  and  C4'_24 
REMARK    7  A    between atoms: C4'_24  and  O4'_25 
REMARK    8  A    between atoms: C4'_24  and  C5'_26 
REMARK    9  A    between atoms: C5'_26  and  O5'_27 
REMARK   10  A    between atoms: O5'_27  and  P_28 
REMARK   11  A    between atoms: P_28  and  O2P_30 
ROOT
HETATM    1  N1  FMN     0       8.090   2.078   3.534  0.00  0.00    -0.173 NA
HETATM    2  C2  FMN     0       7.947   0.785   3.812  0.00  0.00     0.350 A 
HETATM    3  O2  FMN     0       8.932   0.166   4.178  0.00  0.00    -0.244 OA
HETATM    4  N3  FMN     0       6.788   0.119   3.716  0.00  0.00    -0.272 N 
HETATM    5  C4  FMN     0       5.652   0.739   3.318  0.00  0.00     0.282 A 
HETATM    6  O4  FMN     0       4.599   0.138   3.230  0.00  0.00    -0.265 OA
HETATM    7  C4A FMN     0       5.748   2.179   2.993  0.00  0.00     0.171 A 
HETATM    8  N5  FMN     0       4.714   2.875   2.597  0.00  0.00    -0.237 NA
HETATM    9  C5A FMN     0       4.835   4.179   2.311  0.00  0.00     0.085 A 
HETATM   10  C6  FMN     0       3.709   4.910   1.887  0.00  0.00     0.041 A 
HETATM   11  C7  FMN     0       3.829   6.235   1.595  0.00  0.00    -0.054 A 
HETATM   12  C7M FMN     0       2.620   7.011   1.142  0.00  0.00     0.049 C 
HETATM   13  C8  FMN     0       5.056   6.880   1.711  0.00  0.00    -0.054 A 
HETATM   14  C8M FMN     0       5.162   8.347   1.384  0.00  0.00     0.049 C 
HETATM   15  C9  FMN     0       6.175   6.191   2.125  0.00  0.00     0.039 A 
HETATM   16  C9A FMN     0       6.081   4.836   2.428  0.00  0.00     0.065 A 
HETATM   17  N10 FMN     0       7.198   4.140   2.842  0.00  0.00    -0.325 N 
HETATM   18  C10 FMN     0       7.069   2.816   3.132  0.00  0.00     0.170 A 
HETATM   19  HN3 FMN     0       6.761  -0.825   3.937  0.00  0.00     0.174 HD
ENDROOT
BRANCH  17  20
HETATM   20  C1' FMN     0       8.494   4.812   2.966  0.00  0.00     0.165 C 
BRANCH  20  21
HETATM   21  C2' FMN     0       9.269   4.673   1.654  0.00  0.00     0.167 C 
BRANCH  21  22
HETATM   22  O2' FMN     0      10.096   3.509   1.711  0.00  0.00    -0.391 OA
HETATM   23 'HO2 FMN     0      10.017   2.934   0.938  0.00  0.00     0.210 HD
ENDBRANCH  21  22
BRANCH  21  24
HETATM   24  C3' FMN     0      10.144   5.911   1.444  0.00  0.00     0.179 C 
BRANCH  24  25
HETATM   25  O3' FMN     0       9.665   6.977   2.266  0.00  0.00    -0.390 OA
HETATM   26 'HO3 FMN     0       8.818   7.346   1.979  0.00  0.00     0.210 HD
ENDBRANCH  24  25
BRANCH  24  27
HETATM   27  C4' FMN     0      10.086   6.333  -0.025  0.00  0.00     0.173 C 
BRANCH  27  28
HETATM   28  O4' FMN     0      11.373   6.798  -0.438  0.00  0.00    -0.391 OA
HETATM   29 'HO4 FMN     0      12.001   6.915   0.288  0.00  0.00     0.210 HD
ENDBRANCH  27  28
BRANCH  27  30
HETATM   30  C5' FMN     0       9.060   7.455  -0.193  0.00  0.00     0.215 C 
BRANCH  30  31
HETATM   31  O5' FMN     0       9.738   8.710  -0.283  0.00  0.00    -0.287 OA
BRANCH  31  32
HETATM   32  P   FMN     0       9.162  10.066   0.365  0.00  0.00     0.406 P 
HETATM   33  O1P FMN     0      10.250  11.066   0.466  0.00  0.00    -0.624 OA
HETATM   34  O3P FMN     0       8.581   9.755   1.834  0.00  0.00    -0.624 OA
BRANCH  32  35
HETATM   35  O2P FMN     0       7.984  10.648  -0.565  0.00  0.00    -0.300 OA
HETATM   36 2HOP FMN     0       7.201  10.083  -0.607  0.00  0.00     0.223 HD
ENDBRANCH  32  35
ENDBRANCH  31  32
ENDBRANCH  30  31
ENDBRANCH  27  30
ENDBRANCH  24  27
ENDBRANCH  21  24
ENDBRANCH  20  21
ENDBRANCH  17  20
TORSDOF 11
BEGIN_RES PHE A  13
REMARK  2 active torsions:
REMARK  status: ('A' for Active; 'I' for Inactive)
REMARK    1  A    between atoms: CA   and  CB  
REMARK    2  A    between atoms: CB   and  CG  
ROOT
ATOM      1  CA  PHE A  13      -5.715  -3.676   4.598  1.00 96.75     0.191 C 
ENDROOT
BRANCH   1   2
ATOM      2  CB  PHE A  13      -5.789  -5.160   4.234  1.00 96.75     0.060 C 
BRANCH   2   3
ATOM      3  CG  PHE A  13      -6.213  -6.044   5.377  1.00 96.75    -0.020 A 
ATOM      4  CD1 PHE A  13      -5.297  -6.886   6.003  1.00 96.75    -0.004 A 
ATOM      5  CE1 PHE A  13      -5.685  -7.705   7.060  1.00 96.75    -0.000 A 
ATOM      6  CZ  PHE A  13      -7.000  -7.688   7.495  1.00 96.75    -0.000 A 
ATOM      7  CE2 PHE A  13      -7.924  -6.854   6.880  1.00 96.75    -0.000 A 
ATOM      8  CD2 PHE A  13      -7.525  -6.040   5.827  1.00 96.75    -0.004 A 
ENDBRANCH   2   3
ENDBRANCH   1   2
END_RES PHE A  13
BEGIN_RES TYR A  14
REMARK  2 active torsions:
REMARK  status: ('A' for Active; 'I' for Inactive)
REMARK    3  A    between atoms: CA   and  CB  
REMARK    4  A    between atoms: CB   and  CG  
ROOT
ATOM      9  CA  TYR A  14      -4.691  -2.633   8.086  1.00 93.62     0.189 C 
ENDROOT
BRANCH   9  10
ATOM     10  CB  TYR A  14      -4.531  -1.180   8.539  1.00 93.62     0.060 C 
BRANCH  10  11
ATOM     11  CG  TYR A  14      -3.095  -0.742   8.677  1.00 93.62    -0.020 A 
ATOM     12  CD1 TYR A  14      -2.064  -1.470   8.081  1.00 93.62    -0.002 A 
ATOM     13  CE1 TYR A  14      -0.737  -1.071   8.206  1.00 93.62     0.027 A 
ATOM     14  CZ  TYR A  14      -0.433   0.063   8.932  1.00 93.62     0.131 A 
ATOM     15  CE2 TYR A  14      -1.435   0.802   9.533  1.00 93.62     0.027 A 
ATOM     16  OH  TYR A  14       0.877   0.464   9.060  1.00 93.62    -0.190 OA
ATOM     17  CD2 TYR A  14      -2.759   0.395   9.401  1.00 93.62    -0.002 A 
ENDBRANCH  10  11
ENDBRANCH   9  10
END_RES TYR A  14
BEGIN_RES TYR A  18
REMARK  2 active torsions:
REMARK  status: ('A' for Active; 'I' for Inactive)
REMARK    5  A    between atoms: CA   and  CB  
REMARK    6  A    between atoms: CB   and  CG  
ROOT
ATOM     18  CA  TYR A  18      -6.414   2.850   9.727  1.00 95.31     0.191 C 
ENDROOT
BRANCH  18  19
ATOM     19  CB  TYR A  18      -6.664   3.631   8.438  1.00 95.31     0.060 C 
BRANCH  19  20
ATOM     20  CG  TYR A  18      -5.565   3.483   7.415  1.00 95.31    -0.020 A 
ATOM     21  CD1 TYR A  18      -4.988   4.601   6.819  1.00 95.31    -0.002 A 
ATOM     22  CE1 TYR A  18      -3.973   4.468   5.873  1.00 95.31     0.027 A 
ATOM     23  CZ  TYR A  18      -3.533   3.205   5.523  1.00 95.31     0.131 A 
ATOM     24  CE2 TYR A  18      -4.088   2.080   6.099  1.00 95.31     0.027 A 
ATOM     25  OH  TYR A  18      -2.528   3.069   4.587  1.00 95.31    -0.190 OA
ATOM     26  CD2 TYR A  18      -5.099   2.225   7.042  1.00 95.31    -0.002 A 
ENDBRANCH  19  20
ENDBRANCH  18  19
END_RES TYR A  18
BEGIN_RES PHE A  53
REMARK  2 active torsions:
REMARK  status: ('A' for Active; 'I' for Inactive)
REMARK    7  A    between atoms: CA   and  CB  
REMARK    8  A    between atoms: CB   and  CG  
ROOT
ATOM     27  CA  PHE A  53      -6.395  -5.793  -5.398  1.00 98.75     0.191 C 
ENDROOT
BRANCH  27  28
ATOM     28  CB  PHE A  53      -5.031  -5.277  -5.871  1.00 98.75     0.060 C 
BRANCH  28  29
ATOM     29  CG  PHE A  53      -4.873  -3.787  -5.751  1.00 98.75    -0.020 A 
ATOM     30  CD1 PHE A  53      -4.208  -3.229  -4.666  1.00 98.75    -0.004 A 
ATOM     31  CE1 PHE A  53      -4.062  -1.848  -4.552  1.00 98.75    -0.000 A 
ATOM     32  CZ  PHE A  53      -4.587  -1.015  -5.531  1.00 98.75    -0.000 A 
ATOM     33  CE2 PHE A  53      -5.249  -1.561  -6.617  1.00 98.75    -0.000 A 
ATOM     34  CD2 PHE A  53      -5.393  -2.942  -6.724  1.00 98.75    -0.004 A 
ENDBRANCH  28  29
ENDBRANCH  27  28
END_RES PHE A  53
BEGIN_RES TYR A 154
REMARK  2 active torsions:
REMARK  status: ('A' for Active; 'I' for Inactive)
REMARK    9  A    between atoms: CA   and  CB  
REMARK   10  A    between atoms: CB   and  CG  
ROOT
ATOM     35  CA  TYR A 154      16.609   5.410  -4.973  1.00 89.75     0.191 C 
ENDROOT
BRANCH  35  36
ATOM     36  CB  TYR A 154      15.984   6.781  -5.258  1.00 89.75     0.060 C 
BRANCH  36  37
ATOM     37  CG  TYR A 154      14.574   6.925  -4.744  1.00 89.75    -0.020 A 
ATOM     38  CD1 TYR A 154      14.253   7.902  -3.798  1.00 89.75    -0.002 A 
ATOM     39  CE1 TYR A 154      12.958   8.039  -3.319  1.00 89.75     0.027 A 
ATOM     40  CZ  TYR A 154      11.965   7.198  -3.783  1.00 89.75     0.131 A 
ATOM     41  CE2 TYR A 154      12.258   6.219  -4.720  1.00 89.75     0.027 A 
ATOM     42  OH  TYR A 154      10.682   7.329  -3.313  1.00 89.75    -0.190 OA
ATOM     43  CD2 TYR A 154      13.560   6.092  -5.196  1.00 89.75    -0.002 A 
ENDBRANCH  36  37
ENDBRANCH  35  36
END_RES TYR A 154
ENDMDL
