MODEL 1
REMARK VINA RESULT:    -7.514      0.000      0.000
REMARK INTER + INTRA:         -21.182
REMARK INTER:                  -7.514
REMARK INTRA:                 -13.668
REMARK UNBOUND:               -13.668
REMARK  0 active torsions:
REMARK  status: ('A' for Active; 'I' for Inactive)
ROOT
HETATM    1  N1  LFN     0       7.900   7.618   0.164  0.00  0.00    -0.173 NA
HETATM    2  C2  LFN     0       8.926   8.375  -0.215  0.00  0.00     0.350 A 
HETATM    3  C10 LFN     0       8.082   6.487   0.823  0.00  0.00     0.170 A 
HETATM    4  O2  LFN     0       8.685   9.402  -0.824  0.00  0.00    -0.244 OA
HETATM    5  N3  LFN     0      10.211   8.077   0.031  0.00  0.00    -0.272 N 
HETATM    6  C4  LFN     0      10.555   6.953   0.701  0.00  0.00     0.282 A 
HETATM    7  O4  LFN     0      11.719   6.681   0.924  0.00  0.00    -0.265 OA
HETATM    8  C4A LFN     0       9.456   6.070   1.148  0.00  0.00     0.171 A 
HETATM    9  N5  LFN     0       9.676   4.959   1.804  0.00  0.00    -0.237 NA
HETATM   10  C5A LFN     0       8.657   4.182   2.195  0.00  0.00     0.085 A 
HETATM   11  C6  LFN     0       8.915   2.990   2.899  0.00  0.00     0.041 A 
HETATM   12  C9A LFN     0       7.319   4.541   1.912  0.00  0.00     0.065 A 
HETATM   13  C7  LFN     0       7.881   2.199   3.298  0.00  0.00    -0.054 A 
HETATM   14  C7M LFN     0       8.164   0.924   4.051  0.00  0.00     0.049 C 
HETATM   15  C8  LFN     0       6.565   2.553   3.019  0.00  0.00    -0.054 A 
HETATM   16  C8M LFN     0       5.438   1.660   3.471  0.00  0.00     0.049 C 
HETATM   17  C9  LFN     0       6.282   3.713   2.331  0.00  0.00     0.039 A 
HETATM   18  N10 LFN     0       7.041   5.703   1.224  0.00  0.00    -0.332 N 
HETATM   19  C1' LFN     0       5.658   6.084   0.926  0.00  0.00     0.158 C 
HETATM   20  H3  LFN     0      10.906   8.679  -0.278  0.00  0.00     0.174 HD
ENDROOT
TORSDOF 0
BEGIN_RES PHE A  13
REMARK  2 active torsions:
REMARK  status: ('A' for Active; 'I' for Inactive)
REMARK    1  A    between atoms: CA   and  CB  
REMARK    2  A    between atoms: CB   and  CG  
ROOT
ATOM      1  CA  PHE A  13      -5.715  -3.676   4.598  1.00 96.75     0.191 C 
ENDROOT
BRANCH   1   2
ATOM      2  CB  PHE A  13      -5.789  -5.160   4.234  1.00 96.75     0.060 C 
BRANCH   2   3
ATOM      3  CG  PHE A  13      -6.214  -6.044   5.377  1.00 96.75    -0.020 A 
ATOM      4  CD1 PHE A  13      -5.299  -6.886   6.004  1.00 96.75    -0.004 A 
ATOM      5  CE1 PHE A  13      -5.688  -7.704   7.060  1.00 96.75    -0.000 A 
ATOM      6  CZ  PHE A  13      -7.004  -7.687   7.494  1.00 96.75    -0.000 A 
ATOM      7  CE2 PHE A  13      -7.926  -6.854   6.878  1.00 96.75    -0.000 A 
ATOM      8  CD2 PHE A  13      -7.526  -6.040   5.825  1.00 96.75    -0.004 A 
ENDBRANCH   2   3
ENDBRANCH   1   2
END_RES PHE A  13
BEGIN_RES TYR A  14
REMARK  2 active torsions:
REMARK  status: ('A' for Active; 'I' for Inactive)
REMARK    3  A    between atoms: CA   and  CB  
REMARK    4  A    between atoms: CB   and  CG  
ROOT
ATOM      9  CA  TYR A  14      -4.691  -2.633   8.086  1.00 93.62     0.189 C 
ENDROOT
BRANCH   9  10
ATOM     10  CB  TYR A  14      -4.531  -1.180   8.539  1.00 93.62     0.060 C 
BRANCH  10  11
ATOM     11  CG  TYR A  14      -3.095  -0.742   8.675  1.00 93.62    -0.020 A 
ATOM     12  CD1 TYR A  14      -2.064  -1.471   8.082  1.00 93.62    -0.002 A 
ATOM     13  CE1 TYR A  14      -0.737  -1.073   8.205  1.00 93.62     0.027 A 
ATOM     14  CZ  TYR A  14      -0.433   0.065   8.927  1.00 93.62     0.131 A 
ATOM     15  CE2 TYR A  14      -1.435   0.806   9.525  1.00 93.62     0.027 A 
ATOM     16  OH  TYR A  14       0.877   0.466   9.053  1.00 93.62    -0.190 OA
ATOM     17  CD2 TYR A  14      -2.759   0.398   9.395  1.00 93.62    -0.002 A 
ENDBRANCH  10  11
ENDBRANCH   9  10
END_RES TYR A  14
BEGIN_RES TYR A  18
REMARK  2 active torsions:
REMARK  status: ('A' for Active; 'I' for Inactive)
REMARK    5  A    between atoms: CA   and  CB  
REMARK    6  A    between atoms: CB   and  CG  
ROOT
ATOM     18  CA  TYR A  18      -6.414   2.850   9.727  1.00 95.31     0.191 C 
ENDROOT
BRANCH  18  19
ATOM     19  CB  TYR A  18      -6.664   3.631   8.438  1.00 95.31     0.060 C 
BRANCH  19  20
ATOM     20  CG  TYR A  18      -5.565   3.482   7.415  1.00 95.31    -0.020 A 
ATOM     21  CD1 TYR A  18      -5.101   2.223   7.044  1.00 95.31    -0.002 A 
ATOM     22  CE1 TYR A  18      -4.085   2.081   6.099  1.00 95.31     0.027 A 
ATOM     23  CZ  TYR A  18      -3.533   3.209   5.523  1.00 95.31     0.131 A 
ATOM     24  CE2 TYR A  18      -3.974   4.469   5.873  1.00 95.31     0.027 A 
ATOM     25  OH  TYR A  18      -2.527   3.073   4.588  1.00 95.31    -0.190 OA
ATOM     26  CD2 TYR A  18      -4.989   4.598   6.816  1.00 95.31    -0.002 A 
ENDBRANCH  19  20
ENDBRANCH  18  19
END_RES TYR A  18
BEGIN_RES PHE A  53
REMARK  2 active torsions:
REMARK  status: ('A' for Active; 'I' for Inactive)
REMARK    7  A    between atoms: CA   and  CB  
REMARK    8  A    between atoms: CB   and  CG  
ROOT
ATOM     27  CA  PHE A  53      -6.395  -5.793  -5.398  1.00 98.75     0.191 C 
ENDROOT
BRANCH  27  28
ATOM     28  CB  PHE A  53      -5.031  -5.277  -5.871  1.00 98.75     0.060 C 
BRANCH  28  29
ATOM     29  CG  PHE A  53      -4.873  -3.787  -5.753  1.00 98.75    -0.020 A 
ATOM     30  CD1 PHE A  53      -5.395  -2.939  -6.723  1.00 98.75    -0.004 A 
ATOM     31  CE1 PHE A  53      -5.248  -1.557  -6.616  1.00 98.75    -0.000 A 
ATOM     32  CZ  PHE A  53      -4.572  -1.016  -5.531  1.00 98.75    -0.000 A 
ATOM     33  CE2 PHE A  53      -4.050  -1.853  -4.558  1.00 98.75    -0.000 A 
ATOM     34  CD2 PHE A  53      -4.199  -3.232  -4.671  1.00 98.75    -0.004 A 
ENDBRANCH  28  29
ENDBRANCH  27  28
END_RES PHE A  53
BEGIN_RES TYR A 154
REMARK  2 active torsions:
REMARK  status: ('A' for Active; 'I' for Inactive)
REMARK    9  A    between atoms: CA   and  CB  
REMARK   10  A    between atoms: CB   and  CG  
ROOT
ATOM     35  CA  TYR A 154      16.609   5.410  -4.973  1.00 89.75     0.191 C 
ENDROOT
BRANCH  35  36
ATOM     36  CB  TYR A 154      15.984   6.781  -5.258  1.00 89.75     0.060 C 
BRANCH  36  37
ATOM     37  CG  TYR A 154      14.606   6.955  -4.671  1.00 89.75    -0.020 A 
ATOM     38  CD1 TYR A 154      13.565   6.092  -5.020  1.00 89.75    -0.002 A 
ATOM     39  CE1 TYR A 154      12.294   6.248  -4.485  1.00 89.75     0.027 A 
ATOM     40  CZ  TYR A 154      12.049   7.271  -3.590  1.00 89.75     0.131 A 
ATOM     41  CE2 TYR A 154      13.066   8.142  -3.229  1.00 89.75     0.027 A 
ATOM     42  OH  TYR A 154      10.794   7.430  -3.058  1.00 89.75    -0.190 OA
ATOM     43  CD2 TYR A 154      14.338   7.976  -3.769  1.00 89.75    -0.002 A 
ENDBRANCH  36  37
ENDBRANCH  35  36
END_RES TYR A 154
ENDMDL
