MODEL 1
REMARK VINA RESULT:    -6.806      0.000      0.000
REMARK INTER + INTRA:         -21.175
REMARK INTER:                  -6.806
REMARK INTRA:                 -14.369
REMARK UNBOUND:               -14.369
REMARK  0 active torsions:
REMARK  status: ('A' for Active; 'I' for Inactive)
ROOT
HETATM    1  N1  LFN     0       5.016  -3.730   2.020  0.00  0.00    -0.173 NA
HETATM    2  C2  LFN     0       3.899  -3.963   2.706  0.00  0.00     0.350 A 
HETATM    3  C10 LFN     0       6.072  -3.174   2.587  0.00  0.00     0.170 A 
HETATM    4  O2  LFN     0       2.963  -4.474   2.117  0.00  0.00    -0.244 OA
HETATM    5  N3  LFN     0       3.741  -3.671   4.005  0.00  0.00    -0.272 N 
HETATM    6  C4  LFN     0       4.737  -3.102   4.723  0.00  0.00     0.282 A 
HETATM    7  O4  LFN     0       4.596  -2.835   5.901  0.00  0.00    -0.265 OA
HETATM    8  C4A LFN     0       6.004  -2.818   4.014  0.00  0.00     0.171 A 
HETATM    9  N5  LFN     0       7.031  -2.270   4.612  0.00  0.00    -0.237 NA
HETATM   10  C5A LFN     0       8.165  -2.027   3.940  0.00  0.00     0.085 A 
HETATM   11  C6  LFN     0       9.259  -1.437   4.602  0.00  0.00     0.041 A 
HETATM   12  C9A LFN     0       8.282  -2.355   2.570  0.00  0.00     0.065 A 
HETATM   13  C7  LFN     0      10.412  -1.189   3.921  0.00  0.00    -0.054 A 
HETATM   14  C7M LFN     0      11.579  -0.557   4.636  0.00  0.00     0.049 C 
HETATM   15  C8  LFN     0      10.525  -1.512   2.573  0.00  0.00    -0.054 A 
HETATM   16  C8M LFN     0      11.812  -1.227   1.842  0.00  0.00     0.049 C 
HETATM   17  C9  LFN     0       9.472  -2.090   1.899  0.00  0.00     0.039 A 
HETATM   18  N10 LFN     0       7.225  -2.935   1.900  0.00  0.00    -0.332 N 
HETATM   19  C1' LFN     0       7.336  -3.278   0.480  0.00  0.00     0.158 C 
HETATM   20  H3  LFN     0       2.897  -3.870   4.438  0.00  0.00     0.174 HD
ENDROOT
TORSDOF 0
BEGIN_RES TYR A  24
REMARK  2 active torsions:
REMARK  status: ('A' for Active; 'I' for Inactive)
REMARK    1  A    between atoms: CA   and  CB  
REMARK    2  A    between atoms: CB   and  CG  
ROOT
ATOM      1  CA  TYR A  24      -5.664 -12.750   7.832  1.00 98.00     0.191 C 
ENDROOT
BRANCH   1   2
ATOM      2  CB  TYR A  24      -4.816 -13.031   6.590  1.00 98.00     0.060 C 
BRANCH   2   3
ATOM      3  CG  TYR A  24      -3.350 -13.216   6.882  1.00 98.00    -0.020 A 
ATOM      4  CD1 TYR A  24      -2.733 -14.448   6.704  1.00 98.00    -0.002 A 
ATOM      5  CE1 TYR A  24      -1.381 -14.629   6.972  1.00 98.00     0.027 A 
ATOM      6  CZ  TYR A  24      -0.632 -13.558   7.423  1.00 98.00     0.131 A 
ATOM      7  CE2 TYR A  24      -1.218 -12.321   7.610  1.00 98.00     0.027 A 
ATOM      8  OH  TYR A  24       0.709 -13.725   7.691  1.00 98.00    -0.190 OA
ATOM      9  CD2 TYR A  24      -2.571 -12.157   7.337  1.00 98.00    -0.002 A 
ENDBRANCH   2   3
ENDBRANCH   1   2
END_RES TYR A  24
BEGIN_RES ARG A  47
REMARK  4 active torsions:
REMARK  status: ('A' for Active; 'I' for Inactive)
REMARK    3  A    between atoms: CA   and  CB  
REMARK    4  A    between atoms: CB   and  CG  
REMARK    5  A    between atoms: CG   and  CD  
REMARK    6  A    between atoms: CD   and  NE  
REMARK       I    between atoms: NE   and  CZ  
ROOT
ATOM     10  CA  ARG A  47      10.773 -13.703   5.902  1.00 85.69     0.185 C 
ENDROOT
BRANCH  10  11
ATOM     11  CB  ARG A  47       9.844 -12.500   6.098  1.00 85.69     0.036 C 
BRANCH  11  12
ATOM     12  CG  ARG A  47       9.368 -12.310   7.526  1.00 85.69     0.029 C 
BRANCH  12  13
ATOM     13  CD  ARG A  47       7.869 -12.070   7.599  1.00 85.69     0.145 C 
BRANCH  13  14
ATOM     14  NE  ARG A  47       7.135 -12.928   6.671  1.00 85.69    -0.083 NA
ATOM     15  CZ  ARG A  47       5.827 -12.847   6.446  1.00 85.69     0.782 C 
ATOM     16  NH1 ARG A  47       5.077 -11.960   7.080  1.00 85.69     0.063 N 
ATOM     17  NH2 ARG A  47       5.260 -13.682   5.582  1.00 85.69     0.063 N 
ENDBRANCH  13  14
ENDBRANCH  12  13
ENDBRANCH  11  12
ENDBRANCH  10  11
END_RES ARG A  47
BEGIN_RES TRP A 125
REMARK  2 active torsions:
REMARK  status: ('A' for Active; 'I' for Inactive)
REMARK    7  A    between atoms: CA   and  CB  
REMARK    8  A    between atoms: CB   and  CG  
ROOT
ATOM     18  CA  TRP A 125      14.688   0.539  -7.633  1.00 97.62     0.191 C 
ENDROOT
BRANCH  18  19
ATOM     19  CB  TRP A 125      14.766   1.694  -6.629  1.00 97.62     0.062 C 
BRANCH  19  20
ATOM     20  CG  TRP A 125      14.445   1.299  -5.218  1.00 97.62     0.001 A 
ATOM     21  CD1 TRP A 125      15.282   1.364  -4.139  1.00 97.62     0.095 A 
ATOM     22  NE1 TRP A 125      14.640   0.912  -3.012  1.00 97.62    -0.244 NA
ATOM     23  CE2 TRP A 125      13.362   0.544  -3.351  1.00 97.62     0.081 A 
ATOM     24  CD2 TRP A 125      13.207   0.774  -4.735  1.00 97.62     0.015 A 
ATOM     25  CZ2 TRP A 125      12.336   0.029  -2.559  1.00 97.62     0.019 A 
ATOM     26  CE3 TRP A 125      11.981   0.477  -5.339  1.00 97.62     0.001 A 
ATOM     27  CZ3 TRP A 125      10.954  -0.036  -4.553  1.00 97.62     0.000 A 
ATOM     28  CH2 TRP A 125      11.138  -0.255  -3.177  1.00 97.62     0.002 A 
ENDBRANCH  19  20
ENDBRANCH  18  19
END_RES TRP A 125
BEGIN_RES ARG A 213
REMARK  4 active torsions:
REMARK  status: ('A' for Active; 'I' for Inactive)
REMARK    9  A    between atoms: CA   and  CB  
REMARK   10  A    between atoms: CB   and  CG  
REMARK   11  A    between atoms: CG   and  CD  
REMARK   12  A    between atoms: CD   and  NE  
REMARK       I    between atoms: NE   and  CZ  
ROOT
ATOM     29  CA  ARG A 213       8.648   6.996   7.590  1.00 98.31     0.186 C 
ENDROOT
BRANCH  29  30
ATOM     30  CB  ARG A 213       9.570   5.816   7.887  1.00 98.31     0.036 C 
BRANCH  30  31
ATOM     31  CG  ARG A 213       9.166   5.007   9.112  1.00 98.31     0.029 C 
BRANCH  31  32
ATOM     32  CD  ARG A 213       9.109   3.519   8.813  1.00 98.31     0.145 C 
BRANCH  32  33
ATOM     33  NE  ARG A 213       7.810   2.947   9.152  1.00 98.31    -0.083 NA
ATOM     34  CZ  ARG A 213       7.548   2.262  10.261  1.00 98.31     0.782 C 
ATOM     35  NH1 ARG A 213       8.498   2.052  11.169  1.00 98.31     0.063 N 
ATOM     36  NH2 ARG A 213       6.332   1.786  10.472  1.00 98.31     0.063 N 
ENDBRANCH  32  33
ENDBRANCH  31  32
ENDBRANCH  30  31
ENDBRANCH  29  30
END_RES ARG A 213
BEGIN_RES ARG A 279
REMARK  4 active torsions:
REMARK  status: ('A' for Active; 'I' for Inactive)
REMARK   13  A    between atoms: CA   and  CB  
REMARK   14  A    between atoms: CB   and  CG  
REMARK   15  A    between atoms: CG   and  CD  
REMARK   16  A    between atoms: CD   and  NE  
REMARK       I    between atoms: NE   and  CZ  
ROOT
ATOM     37  CA  ARG A 279       2.367  -0.652  11.586  1.00 98.12     0.185 C 
ENDROOT
BRANCH  37  38
ATOM     38  CB  ARG A 279       3.805  -0.520  11.078  1.00 98.12     0.036 C 
BRANCH  38  39
ATOM     39  CG  ARG A 279       4.220  -1.619  10.106  1.00 98.12     0.029 C 
BRANCH  39  40
ATOM     40  CD  ARG A 279       4.877  -1.047   8.862  1.00 98.12     0.145 C 
BRANCH  40  41
ATOM     41  NE  ARG A 279       6.310  -1.323   8.829  1.00 98.12    -0.083 NA
ATOM     42  CZ  ARG A 279       7.174  -0.744   7.999  1.00 98.12     0.782 C 
ATOM     43  NH1 ARG A 279       6.766   0.158   7.113  1.00 98.12     0.063 N 
ATOM     44  NH2 ARG A 279       8.456  -1.073   8.052  1.00 98.12     0.063 N 
ENDBRANCH  40  41
ENDBRANCH  39  40
ENDBRANCH  38  39
ENDBRANCH  37  38
END_RES ARG A 279
ENDMDL
