MODEL 1
REMARK VINA RESULT:    -7.673      0.000      0.000
REMARK INTER + INTRA:         -26.890
REMARK INTER:                 -11.711
REMARK INTRA:                 -15.180
REMARK UNBOUND:               -15.180
REMARK  11 active torsions:
REMARK  status: ('A' for Active; 'I' for Inactive)
REMARK    1  A    between atoms: N10_17  and  C1'_19 
REMARK    2  A    between atoms: C1'_19  and  C2'_20 
REMARK    3  A    between atoms: C2'_20  and  O2'_21 
REMARK    4  A    between atoms: C2'_20  and  C3'_22 
REMARK    5  A    between atoms: C3'_22  and  O3'_23 
REMARK    6  A    between atoms: C3'_22  and  C4'_24 
REMARK    7  A    between atoms: C4'_24  and  O4'_25 
REMARK    8  A    between atoms: C4'_24  and  C5'_26 
REMARK    9  A    between atoms: C5'_26  and  O5'_27 
REMARK   10  A    between atoms: O5'_27  and  P_28 
REMARK   11  A    between atoms: P_28  and  O2P_30 
ROOT
HETATM    1  N1  FMN     0      10.717  -4.411   1.979  0.00  0.00    -0.173 NA
HETATM    2  C2  FMN     0      11.033  -5.692   2.145  0.00  0.00     0.350 A 
HETATM    3  O2  FMN     0      10.131  -6.478   2.380  0.00  0.00    -0.244 OA
HETATM    4  N3  FMN     0      12.282  -6.174   2.071  0.00  0.00    -0.272 N 
HETATM    5  C4  FMN     0      13.334  -5.362   1.813  0.00  0.00     0.282 A 
HETATM    6  O4  FMN     0      14.467  -5.796   1.744  0.00  0.00    -0.265 OA
HETATM    7  C4A FMN     0      13.045  -3.924   1.619  0.00  0.00     0.171 A 
HETATM    8  N5  FMN     0      13.987  -3.052   1.367  0.00  0.00    -0.237 NA
HETATM    9  C5A FMN     0      13.691  -1.756   1.197  0.00  0.00     0.085 A 
HETATM   10  C6  FMN     0      14.720  -0.833   0.925  0.00  0.00     0.041 A 
HETATM   11  C7  FMN     0      14.422   0.485   0.752  0.00  0.00    -0.054 A 
HETATM   12  C7M FMN     0      15.527   1.467   0.462  0.00  0.00     0.049 C 
HETATM   13  C8  FMN     0      13.108   0.934   0.840  0.00  0.00    -0.054 A 
HETATM   14  C8M FMN     0      12.806   2.397   0.643  0.00  0.00     0.049 C 
HETATM   15  C9  FMN     0      12.082   0.055   1.103  0.00  0.00     0.039 A 
HETATM   16  C9A FMN     0      12.357  -1.297   1.286  0.00  0.00     0.065 A 
HETATM   17  N10 FMN     0      11.333  -2.182   1.551  0.00  0.00    -0.325 N 
HETATM   18  C10 FMN     0      11.639  -3.498   1.722  0.00  0.00     0.170 A 
HETATM   19  HN3 FMN     0      12.435  -7.123   2.203  0.00  0.00     0.174 HD
ENDROOT
BRANCH  17  20
HETATM   20  C1' FMN     0       9.947  -1.716   1.645  0.00  0.00     0.165 C 
BRANCH  20  21
HETATM   21  C2' FMN     0       9.235  -1.959   0.312  0.00  0.00     0.167 C 
BRANCH  21  22
HETATM   22  O2' FMN     0       9.233  -0.753  -0.453  0.00  0.00    -0.391 OA
HETATM   23 'HO2 FMN     0      10.095  -0.320  -0.506  0.00  0.00     0.210 HD
ENDBRANCH  21  22
BRANCH  21  24
HETATM   24  C3' FMN     0       7.794  -2.400   0.576  0.00  0.00     0.179 C 
BRANCH  24  25
HETATM   25  O3' FMN     0       6.982  -1.249   0.819  0.00  0.00    -0.390 OA
HETATM   26 'HO3 FMN     0       7.334  -0.655   1.495  0.00  0.00     0.210 HD
ENDBRANCH  24  25
BRANCH  24  27
HETATM   27  C4' FMN     0       7.756  -3.319   1.799  0.00  0.00     0.173 C 
BRANCH  27  28
HETATM   28  O4' FMN     0       7.769  -4.682   1.371  0.00  0.00    -0.391 OA
HETATM   29 'HO4 FMN     0       6.915  -5.001   1.048  0.00  0.00     0.210 HD
ENDBRANCH  27  28
BRANCH  27  30
HETATM   30  C5' FMN     0       6.482  -3.047   2.601  0.00  0.00     0.215 C 
BRANCH  30  31
HETATM   31  O5' FMN     0       5.388  -3.748   2.006  0.00  0.00    -0.287 OA
BRANCH  31  32
HETATM   32  P   FMN     0       3.872  -3.617   2.534  0.00  0.00     0.406 P 
HETATM   33  O1P FMN     0       3.377  -2.246   2.277  0.00  0.00    -0.624 OA
HETATM   34  O3P FMN     0       3.827  -3.917   4.115  0.00  0.00    -0.624 OA
BRANCH  32  35
HETATM   35  O2P FMN     0       2.941  -4.677   1.760  0.00  0.00    -0.300 OA
HETATM   36 2HOP FMN     0       2.772  -5.489   2.257  0.00  0.00     0.223 HD
ENDBRANCH  32  35
ENDBRANCH  31  32
ENDBRANCH  30  31
ENDBRANCH  27  30
ENDBRANCH  24  27
ENDBRANCH  21  24
ENDBRANCH  20  21
ENDBRANCH  17  20
TORSDOF 11
BEGIN_RES TYR A  24
REMARK  2 active torsions:
REMARK  status: ('A' for Active; 'I' for Inactive)
REMARK    1  A    between atoms: CA   and  CB  
REMARK    2  A    between atoms: CB   and  CG  
ROOT
ATOM      1  CA  TYR A  24      -5.664 -12.750   7.832  1.00 98.00     0.191 C 
ENDROOT
BRANCH   1   2
ATOM      2  CB  TYR A  24      -4.816 -13.031   6.590  1.00 98.00     0.060 C 
BRANCH   2   3
ATOM      3  CG  TYR A  24      -3.348 -13.197   6.879  1.00 98.00    -0.020 A 
ATOM      4  CD1 TYR A  24      -2.584 -12.136   7.350  1.00 98.00    -0.002 A 
ATOM      5  CE1 TYR A  24      -1.228 -12.279   7.619  1.00 98.00     0.027 A 
ATOM      6  CZ  TYR A  24      -0.624 -13.507   7.416  1.00 98.00     0.131 A 
ATOM      7  CE2 TYR A  24      -1.358 -14.580   6.948  1.00 98.00     0.027 A 
ATOM      8  OH  TYR A  24       0.719 -13.661   7.680  1.00 98.00    -0.190 OA
ATOM      9  CD2 TYR A  24      -2.713 -14.420   6.685  1.00 98.00    -0.002 A 
ENDBRANCH   2   3
ENDBRANCH   1   2
END_RES TYR A  24
BEGIN_RES ARG A  47
REMARK  4 active torsions:
REMARK  status: ('A' for Active; 'I' for Inactive)
REMARK    3  A    between atoms: CA   and  CB  
REMARK    4  A    between atoms: CB   and  CG  
REMARK    5  A    between atoms: CG   and  CD  
REMARK    6  A    between atoms: CD   and  NE  
REMARK       I    between atoms: NE   and  CZ  
ROOT
ATOM     10  CA  ARG A  47      10.773 -13.703   5.902  1.00 85.69     0.185 C 
ENDROOT
BRANCH  10  11
ATOM     11  CB  ARG A  47       9.844 -12.500   6.098  1.00 85.69     0.036 C 
BRANCH  11  12
ATOM     12  CG  ARG A  47       9.191 -12.437   7.467  1.00 85.69     0.029 C 
BRANCH  12  13
ATOM     13  CD  ARG A  47       7.723 -12.053   7.379  1.00 85.69     0.145 C 
BRANCH  13  14
ATOM     14  NE  ARG A  47       7.109 -12.530   6.141  1.00 85.69    -0.083 NA
ATOM     15  CZ  ARG A  47       5.804 -12.722   5.974  1.00 85.69     0.782 C 
ATOM     16  NH1 ARG A  47       4.948 -12.496   6.959  1.00 85.69     0.063 N 
ATOM     17  NH2 ARG A  47       5.353 -13.164   4.806  1.00 85.69     0.063 N 
ENDBRANCH  13  14
ENDBRANCH  12  13
ENDBRANCH  11  12
ENDBRANCH  10  11
END_RES ARG A  47
BEGIN_RES TRP A 125
REMARK  2 active torsions:
REMARK  status: ('A' for Active; 'I' for Inactive)
REMARK    7  A    between atoms: CA   and  CB  
REMARK    8  A    between atoms: CB   and  CG  
ROOT
ATOM     18  CA  TRP A 125      14.688   0.539  -7.633  1.00 97.62     0.191 C 
ENDROOT
BRANCH  18  19
ATOM     19  CB  TRP A 125      14.766   1.694  -6.629  1.00 97.62     0.062 C 
BRANCH  19  20
ATOM     20  CG  TRP A 125      14.452   1.297  -5.217  1.00 97.62     0.001 A 
ATOM     21  CD1 TRP A 125      15.298   1.352  -4.144  1.00 97.62     0.095 A 
ATOM     22  NE1 TRP A 125      14.660   0.902  -3.014  1.00 97.62    -0.244 NA
ATOM     23  CE2 TRP A 125      13.377   0.546  -3.344  1.00 97.62     0.081 A 
ATOM     24  CD2 TRP A 125      13.214   0.782  -4.726  1.00 97.62     0.015 A 
ATOM     25  CZ2 TRP A 125      12.352   0.038  -2.546  1.00 97.62     0.019 A 
ATOM     26  CE3 TRP A 125      11.980   0.498  -5.322  1.00 97.62     0.001 A 
ATOM     27  CZ3 TRP A 125      10.955  -0.008  -4.530  1.00 97.62     0.000 A 
ATOM     28  CH2 TRP A 125      11.147  -0.233  -3.155  1.00 97.62     0.002 A 
ENDBRANCH  19  20
ENDBRANCH  18  19
END_RES TRP A 125
BEGIN_RES ARG A 213
REMARK  4 active torsions:
REMARK  status: ('A' for Active; 'I' for Inactive)
REMARK    9  A    between atoms: CA   and  CB  
REMARK   10  A    between atoms: CB   and  CG  
REMARK   11  A    between atoms: CG   and  CD  
REMARK   12  A    between atoms: CD   and  NE  
REMARK       I    between atoms: NE   and  CZ  
ROOT
ATOM     29  CA  ARG A 213       8.648   6.996   7.590  1.00 98.31     0.186 C 
ENDROOT
BRANCH  29  30
ATOM     30  CB  ARG A 213       9.570   5.816   7.887  1.00 98.31     0.036 C 
BRANCH  30  31
ATOM     31  CG  ARG A 213       8.999   4.821   8.887  1.00 98.31     0.029 C 
BRANCH  31  32
ATOM     32  CD  ARG A 213       9.268   3.384   8.472  1.00 98.31     0.145 C 
BRANCH  32  33
ATOM     33  NE  ARG A 213       8.240   2.880   7.567  1.00 98.31    -0.083 NA
ATOM     34  CZ  ARG A 213       8.211   1.653   7.058  1.00 98.31     0.782 C 
ATOM     35  NH1 ARG A 213       9.160   0.770   7.362  1.00 98.31     0.063 N 
ATOM     36  NH2 ARG A 213       7.230   1.297   6.245  1.00 98.31     0.063 N 
ENDBRANCH  32  33
ENDBRANCH  31  32
ENDBRANCH  30  31
ENDBRANCH  29  30
END_RES ARG A 213
BEGIN_RES ARG A 279
REMARK  4 active torsions:
REMARK  status: ('A' for Active; 'I' for Inactive)
REMARK   13  A    between atoms: CA   and  CB  
REMARK   14  A    between atoms: CB   and  CG  
REMARK   15  A    between atoms: CG   and  CD  
REMARK   16  A    between atoms: CD   and  NE  
REMARK       I    between atoms: NE   and  CZ  
ROOT
ATOM     37  CA  ARG A 279       2.367  -0.652  11.586  1.00 98.12     0.185 C 
ENDROOT
BRANCH  37  38
ATOM     38  CB  ARG A 279       3.805  -0.520  11.078  1.00 98.12     0.036 C 
BRANCH  38  39
ATOM     39  CG  ARG A 279       4.097  -1.346   9.830  1.00 98.12     0.029 C 
BRANCH  39  40
ATOM     40  CD  ARG A 279       4.923  -0.564   8.823  1.00 98.12     0.145 C 
BRANCH  40  41
ATOM     41  NE  ARG A 279       6.205  -1.210   8.555  1.00 98.12    -0.083 NA
ATOM     42  CZ  ARG A 279       6.469  -1.952   7.482  1.00 98.12     0.782 C 
ATOM     43  NH1 ARG A 279       5.543  -2.158   6.552  1.00 98.12     0.063 N 
ATOM     44  NH2 ARG A 279       7.669  -2.495   7.340  1.00 98.12     0.063 N 
ENDBRANCH  40  41
ENDBRANCH  39  40
ENDBRANCH  38  39
ENDBRANCH  37  38
END_RES ARG A 279
ENDMDL
