REMARK  Name = /home/esp/scriptDevelopment/pocketDock/ligands/fepc.pdb
REMARK  0 active torsions:
REMARK  status: ('A' for Active; 'I' for Inactive)
REMARK                            x       y       z     vdW  Elec       q    Type
REMARK                         _______ _______ _______ _____ _____    ______ ____
ROOT
ATOM      1  N   WPZ   201       0.486  -0.357  -0.341  0.00  0.00    +0.000 N 
ATOM      2  NB  WPZ   201       2.929  -1.386  -0.807  0.00  0.00    +0.000 N 
ATOM      3  ND  WPZ   201       0.114  -2.475   1.265  0.00  0.00    +0.000 N 
ATOM      4  C1  WPZ   201      -1.306  -3.696   2.736  0.00  0.00    +0.000 A 
ATOM      5  C1B WPZ   201       3.094  -0.225  -1.496  0.00  0.00    +0.000 C 
ATOM      6  C1C WPZ   201       2.138  -4.501   1.575  0.00  0.00    +0.000 A 
ATOM      7  C2  WPZ   201      -2.008  -2.618   2.311  0.00  0.00    +0.000 A 
ATOM      8  C2B WPZ   201       4.351  -0.119  -2.223  0.00  0.00    +0.000 A 
ATOM      9  C3  WPZ   201      -1.093  -1.873   1.461  0.00  0.00    +0.000 C 
ATOM     10  C3B WPZ   201       5.041  -1.226  -1.913  0.00  0.00    +0.000 A 
ATOM     11  C3C WPZ   201       4.111  -5.244   0.825  0.00  0.00    +0.000 A 
ATOM     12  N3  WPZ   201       0.970  -4.530   2.263  0.00  0.00    +0.000 N 
ATOM     13  C4  WPZ   201      -0.012  -3.587   2.066  0.00  0.00    +0.000 C 
ATOM     14  C4B WPZ   201       4.108  -2.036  -1.120  0.00  0.00    +0.000 C 
ATOM     15  C4C WPZ   201       3.690  -3.949   0.258  0.00  0.00    +0.000 A 
ATOM     16  N5  WPZ   201       4.505  -3.228  -0.560  0.00  0.00    +0.000 N 
ATOM     17  C6  WPZ   201       3.086  -5.619   1.629  0.00  0.00    +0.000 A 
ATOM     18  N7  WPZ   201      -1.492  -0.721   0.829  0.00  0.00    +0.000 N 
ATOM     19  N8  WPZ   201       2.131   0.743  -1.649  0.00  0.00    +0.000 N 
ATOM     20  C13 WPZ   201      -1.091   1.361  -0.399  0.00  0.00    +0.000 A 
ATOM     21  C14 WPZ   201      -0.041   1.772  -1.137  0.00  0.00    +0.000 A 
ATOM     22  C15 WPZ   201       0.971   0.732  -0.932  0.00  0.00    +0.000 A 
ATOM     23  C16 WPZ   201      -0.648   0.078   0.178  0.00  0.00    +0.000 A 
ATOM     24  C17 WPZ   201       4.867   0.870  -2.991  0.00  0.00    +0.000 A 
ATOM     25  C18 WPZ   201       6.155   0.705  -3.505  0.00  0.00    +0.000 A 
ATOM     26  C19 WPZ   201       6.879  -0.460  -3.213  0.00  0.00    +0.000 A 
ATOM     27  C20 WPZ   201       6.306  -1.450  -2.415  0.00  0.00    +0.000 A 
ATOM     28  C21 WPZ   201       5.216  -6.049   0.632  0.00  0.00    +0.000 A 
ATOM     29  C22 WPZ   201       5.252  -7.283   1.298  0.00  0.00    +0.000 A 
ATOM     30  C23 WPZ   201       4.187  -7.672   2.126  0.00  0.00    +0.000 A 
ATOM     31  C24 WPZ   201       3.079  -6.824   2.297  0.00  0.00    +0.000 A 
ATOM     32  C25 WPZ   201      -1.835  -4.625   3.592  0.00  0.00    +0.000 A 
ATOM     33  C26 WPZ   201      -3.143  -4.434   4.042  0.00  0.00    +0.000 A 
ATOM     34  C27 WPZ   201      -3.875  -3.311   3.615  0.00  0.00    +0.000 A 
ATOM     35  C28 WPZ   201      -3.293  -2.378   2.744  0.00  0.00    +0.000 A 
ATOM     36  C29 WPZ   201      -2.200   2.165  -0.202  0.00  0.00    +0.000 A 
ATOM     37  C30 WPZ   201      -2.219   3.421  -0.829  0.00  0.00    +0.000 A 
ATOM     38  C31 WPZ   201      -1.105   3.846  -1.588  0.00  0.00    +0.000 A 
ATOM     39  C32 WPZ   201       0.013   3.016  -1.714  0.00  0.00    +0.000 A 
ATOM     40  NC  WPZ   201       2.529  -3.480   0.784  0.00  0.00    +0.000 N 
ATOM     41 FE   FE1   202       1.414  -1.919   0.347  0.00  0.00    +0.000 Fe
ENDROOT
TORSDOF 0
