REMARK  Name = /home/esp/scriptDevelopment/pocketDock/ligands/WPC.pdb
REMARK  0 active torsions:
REMARK  status: ('A' for Active; 'I' for Inactive)
REMARK                            x       y       z     vdW  Elec       q    Type
REMARK                         _______ _______ _______ _____ _____    ______ ____
ROOT
ATOM      1  NA  WPC A 456      18.624  16.692 135.161  0.00  0.00    +0.000 NA
ATOM      2  NB  WPC A 456      21.067  15.663 134.695  0.00  0.00    +0.000 NA
ATOM      3  ND  WPC A 456      18.252  14.574 136.767  0.00  0.00    +0.000 NA
ATOM      4  C1  WPC A 456      16.832  13.353 138.238  0.00  0.00    +0.000 A 
ATOM      5  C1B WPC A 456      21.232  16.824 134.006  0.00  0.00    +0.000 C 
ATOM      6  C1C WPC A 456      20.276  12.548 137.077  0.00  0.00    +0.000 A 
ATOM      7  C2  WPC A 456      16.130  14.431 137.813  0.00  0.00    +0.000 A 
ATOM      8  C2B WPC A 456      22.489  16.930 133.279  0.00  0.00    +0.000 A 
ATOM      9  C3  WPC A 456      17.045  15.176 136.963  0.00  0.00    +0.000 C 
ATOM     10  C3B WPC A 456      23.179  15.823 133.589  0.00  0.00    +0.000 A 
ATOM     11  C3C WPC A 456      22.249  11.805 136.327  0.00  0.00    +0.000 A 
ATOM     12  N3  WPC A 456      19.108  12.519 137.765  0.00  0.00    +0.000 NA
ATOM     13  C4  WPC A 456      18.126  13.462 137.568  0.00  0.00    +0.000 C 
ATOM     14  C4B WPC A 456      22.246  15.013 134.382  0.00  0.00    +0.000 C 
ATOM     15  C4C WPC A 456      21.828  13.100 135.760  0.00  0.00    +0.000 A 
ATOM     16  N5  WPC A 456      22.643  13.821 134.942  0.00  0.00    +0.000 NA
ATOM     17  C6  WPC A 456      21.224  11.430 137.131  0.00  0.00    +0.000 A 
ATOM     18  N7  WPC A 456      16.646  16.328 136.331  0.00  0.00    +0.000 NA
ATOM     19  N8  WPC A 456      20.269  17.792 133.853  0.00  0.00    +0.000 NA
ATOM     20  C13 WPC A 456      17.047  18.410 135.103  0.00  0.00    +0.000 A 
ATOM     21  C14 WPC A 456      18.097  18.821 134.365  0.00  0.00    +0.000 A 
ATOM     22  C15 WPC A 456      19.109  17.781 134.570  0.00  0.00    +0.000 A 
ATOM     23  C16 WPC A 456      17.490  17.127 135.680  0.00  0.00    +0.000 A 
ATOM     24  C17 WPC A 456      23.005  17.919 132.511  0.00  0.00    +0.000 A 
ATOM     25  C18 WPC A 456      24.293  17.754 131.997  0.00  0.00    +0.000 A 
ATOM     26  C19 WPC A 456      25.017  16.589 132.289  0.00  0.00    +0.000 A 
ATOM     27  C20 WPC A 456      24.444  15.599 133.087  0.00  0.00    +0.000 A 
ATOM     28  C21 WPC A 456      23.354  11.000 136.134  0.00  0.00    +0.000 A 
ATOM     29  C22 WPC A 456      23.390   9.766 136.800  0.00  0.00    +0.000 A 
ATOM     30  C23 WPC A 456      22.325   9.377 137.628  0.00  0.00    +0.000 A 
ATOM     31  C24 WPC A 456      21.217  10.225 137.799  0.00  0.00    +0.000 A 
ATOM     32  C25 WPC A 456      16.303  12.424 139.094  0.00  0.00    +0.000 A 
ATOM     33  C26 WPC A 456      14.995  12.615 139.544  0.00  0.00    +0.000 A 
ATOM     34  C27 WPC A 456      14.263  13.738 139.117  0.00  0.00    +0.000 A 
ATOM     35  C28 WPC A 456      14.845  14.671 138.246  0.00  0.00    +0.000 A 
ATOM     36  C29 WPC A 456      15.938  19.214 135.300  0.00  0.00    +0.000 A 
ATOM     37  C30 WPC A 456      15.919  20.470 134.673  0.00  0.00    +0.000 A 
ATOM     38  C31 WPC A 456      17.033  20.895 133.914  0.00  0.00    +0.000 A 
ATOM     39  C32 WPC A 456      18.151  20.065 133.788  0.00  0.00    +0.000 A 
ATOM     40  NC  WPC A 456      20.667  13.569 136.286  0.00  0.00    +0.000 NA
ENDROOT
TORSDOF 0
