MODEL 1
REMARK VINA RESULT:    -7.786      0.000      0.000
REMARK INTER + INTRA:     1274108.309
REMARK INTER:                  -7.786
REMARK INTRA:             1274116.095
REMARK UNBOUND:           1274116.095
REMARK  0 active torsions:
REMARK  status: ('A' for Active; 'I' for Inactive)
ROOT
HETATM    1  N1  LFN     0      -2.038   1.061   4.261  0.00  0.00    -0.173 NA
HETATM    2  C2  LFN     0      -1.247   2.014   4.746  0.00  0.00     0.350 A 
HETATM    3  C10 LFN     0      -1.697   0.354   3.198  0.00  0.00     0.170 A 
HETATM    4  O2  LFN     0      -1.627   2.630   5.726  0.00  0.00    -0.244 OA
HETATM    5  N3  LFN     0      -0.055   2.339   4.224  0.00  0.00    -0.272 N 
HETATM    6  C4  LFN     0       0.433   1.699   3.136  0.00  0.00     0.282 A 
HETATM    7  O4  LFN     0       1.513   1.992   2.660  0.00  0.00    -0.265 OA
HETATM    8  C4A LFN     0      -0.404   0.629   2.550  0.00  0.00     0.171 A 
HETATM    9  N5  LFN     0      -0.029  -0.054   1.498  0.00  0.00    -0.237 NA
HETATM   10  C5A LFN     0      -0.811  -1.018   0.994  0.00  0.00     0.085 A 
HETATM   11  C6  LFN     0      -0.389  -1.741  -0.139  0.00  0.00     0.041 A 
HETATM   12  C9A LFN     0      -2.060  -1.323   1.582  0.00  0.00     0.065 A 
HETATM   13  C7  LFN     0      -1.182  -2.721  -0.653  0.00  0.00    -0.054 A 
HETATM   14  C7M LFN     0      -0.725  -3.491  -1.866  0.00  0.00     0.049 C 
HETATM   15  C8  LFN     0      -2.411  -3.020  -0.073  0.00  0.00    -0.054 A 
HETATM   16  C8M LFN     0      -3.270  -4.109  -0.662  0.00  0.00     0.049 C 
HETATM   17  C9  LFN     0      -2.850  -2.330   1.035  0.00  0.00     0.039 A 
HETATM   18  N10 LFN     0      -2.494  -0.629   2.692  0.00  0.00    -0.332 N 
HETATM   19  C1' LFN     0      -3.787  -0.938   3.309  0.00  0.00     0.158 C 
HETATM   20  H3  LFN     0       0.467   3.046   4.633  0.00  0.00     0.174 HD
ENDROOT
TORSDOF 0
BEGIN_RES TYR A  62
REMARK  2 active torsions:
REMARK  status: ('A' for Active; 'I' for Inactive)
REMARK    1  A    between atoms: CA   and  CB  
REMARK    2  A    between atoms: CB   and  CG  
ROOT
ATOM      1  CA  TYR A  62       5.309   9.844   4.113  1.00 98.12     0.189 C 
ENDROOT
BRANCH   1   2
ATOM      2  CB  TYR A  62       4.961   8.852   3.000  1.00 98.12     0.060 C 
BRANCH   2   3
ATOM      3  CG  TYR A  62       4.220   7.628   3.483  1.00 98.12    -0.020 A 
ATOM      4  CD1 TYR A  62       3.273   6.998   2.675  1.00 98.12    -0.002 A 
ATOM      5  CE1 TYR A  62       2.590   5.871   3.114  1.00 98.12     0.027 A 
ATOM      6  CZ  TYR A  62       2.850   5.365   4.377  1.00 98.12     0.131 A 
ATOM      7  CE2 TYR A  62       3.784   5.971   5.196  1.00 98.12     0.027 A 
ATOM      8  OH  TYR A  62       2.174   4.249   4.817  1.00 98.12    -0.190 OA
ATOM      9  CD2 TYR A  62       4.464   7.098   4.746  1.00 98.12    -0.002 A 
ENDBRANCH   2   3
ENDBRANCH   1   2
END_RES TYR A  62
BEGIN_RES TRP A  98
REMARK  2 active torsions:
REMARK  status: ('A' for Active; 'I' for Inactive)
REMARK    3  A    between atoms: CA   and  CB  
REMARK    4  A    between atoms: CB   and  CG  
ROOT
ATOM     10  CA  TRP A  98      -7.906  17.375  17.500  1.00 68.69     0.191 C 
ENDROOT
BRANCH  10  11
ATOM     11  CB  TRP A  98      -6.465  16.891  17.719  1.00 68.69     0.062 C 
BRANCH  11  12
ATOM     12  CG  TRP A  98      -6.159  15.579  17.081  1.00 68.69     0.001 A 
ATOM     13  CD1 TRP A  98      -4.930  14.982  16.946  1.00 68.69     0.095 A 
ATOM     14  NE1 TRP A  98      -5.054  13.777  16.300  1.00 68.69    -0.244 NA
ATOM     15  CE2 TRP A  98      -6.366  13.563  16.003  1.00 68.69     0.081 A 
ATOM     16  CD2 TRP A  98      -7.098  14.682  16.481  1.00 68.69     0.015 A 
ATOM     17  CZ2 TRP A  98      -6.985  12.488  15.352  1.00 68.69     0.019 A 
ATOM     18  CE3 TRP A  98      -8.485  14.711  16.298  1.00 68.69     0.001 A 
ATOM     19  CZ3 TRP A  98      -9.097  13.635  15.655  1.00 68.69     0.000 A 
ATOM     20  CH2 TRP A  98      -8.344  12.541  15.190  1.00 68.69     0.002 A 
ENDBRANCH  11  12
ENDBRANCH  10  11
END_RES TRP A  98
BEGIN_RES PHE A 170
REMARK  2 active torsions:
REMARK  status: ('A' for Active; 'I' for Inactive)
REMARK    5  A    between atoms: CA   and  CB  
REMARK    6  A    between atoms: CB   and  CG  
ROOT
ATOM     21  CA  PHE A 170      -1.354  -4.766   7.742  1.00 97.88     0.191 C 
ENDROOT
BRANCH  21  22
ATOM     22  CB  PHE A 170      -1.077  -5.184   9.195  1.00 97.88     0.060 C 
BRANCH  22  23
ATOM     23  CG  PHE A 170      -0.519  -4.074  10.043  1.00 97.88    -0.020 A 
ATOM     24  CD1 PHE A 170       0.276  -3.083   9.482  1.00 97.88    -0.004 A 
ATOM     25  CE1 PHE A 170       0.795  -2.056  10.268  1.00 97.88    -0.000 A 
ATOM     26  CZ  PHE A 170       0.516  -2.020  11.633  1.00 97.88    -0.000 A 
ATOM     27  CE2 PHE A 170      -0.276  -3.004  12.201  1.00 97.88    -0.000 A 
ATOM     28  CD2 PHE A 170      -0.790  -4.026  11.407  1.00 97.88    -0.004 A 
ENDBRANCH  22  23
ENDBRANCH  21  22
END_RES PHE A 170
BEGIN_RES TYR A 363
REMARK  2 active torsions:
REMARK  status: ('A' for Active; 'I' for Inactive)
REMARK    7  A    between atoms: CA   and  CB  
REMARK    8  A    between atoms: CB   and  CG  
ROOT
ATOM     29  CA  TYR A 363       1.401 -10.820  -2.531  1.00 94.44     0.191 C 
ENDROOT
BRANCH  29  30
ATOM     30  CB  TYR A 363       2.730 -11.156  -3.215  1.00 94.44     0.060 C 
BRANCH  30  31
ATOM     31  CG  TYR A 363       3.857 -11.430  -2.247  1.00 94.44    -0.020 A 
ATOM     32  CD1 TYR A 363       4.217 -12.732  -1.915  1.00 94.44    -0.002 A 
ATOM     33  CE1 TYR A 363       5.252 -12.989  -1.024  1.00 94.44     0.027 A 
ATOM     34  CZ  TYR A 363       5.934 -11.928  -0.451  1.00 94.44     0.131 A 
ATOM     35  CE2 TYR A 363       5.596 -10.625  -0.761  1.00 94.44     0.027 A 
ATOM     36  OH  TYR A 363       6.960 -12.178   0.431  1.00 94.44    -0.190 OA
ATOM     37  CD2 TYR A 363       4.560 -10.384  -1.656  1.00 94.44    -0.002 A 
ENDBRANCH  30  31
ENDBRANCH  29  30
END_RES TYR A 363
BEGIN_RES TYR A 392
REMARK  2 active torsions:
REMARK  status: ('A' for Active; 'I' for Inactive)
REMARK    9  A    between atoms: CA   and  CB  
REMARK   10  A    between atoms: CB   and  CG  
ROOT
ATOM     38  CA  TYR A 392      10.586  -6.387   1.851  1.00 96.69     0.191 C 
ENDROOT
BRANCH  38  39
ATOM     39  CB  TYR A 392      10.633  -7.707   1.079  1.00 96.69     0.060 C 
BRANCH  39  40
ATOM     40  CG  TYR A 392      10.219  -8.908   1.891  1.00 96.69    -0.020 A 
ATOM     41  CD1 TYR A 392       9.582  -9.992   1.291  1.00 96.69    -0.002 A 
ATOM     42  CE1 TYR A 392       9.204 -11.105   2.041  1.00 96.69     0.027 A 
ATOM     43  CZ  TYR A 392       9.458 -11.132   3.400  1.00 96.69     0.131 A 
ATOM     44  CE2 TYR A 392      10.091 -10.068   4.012  1.00 96.69     0.027 A 
ATOM     45  OH  TYR A 392       9.080 -12.226   4.137  1.00 96.69    -0.190 OA
ATOM     46  CD2 TYR A 392      10.468  -8.964   3.260  1.00 96.69    -0.002 A 
ENDBRANCH  39  40
ENDBRANCH  38  39
END_RES TYR A 392
ENDMDL
