MODEL 1
REMARK VINA RESULT:    -5.534      0.000      0.000
REMARK INTER + INTRA:     1274332.420
REMARK INTER:                  -8.446
REMARK INTRA:             1274340.866
REMARK UNBOUND:           1274340.866
REMARK  11 active torsions:
REMARK  status: ('A' for Active; 'I' for Inactive)
REMARK    1  A    between atoms: N10_17  and  C1'_19 
REMARK    2  A    between atoms: C1'_19  and  C2'_20 
REMARK    3  A    between atoms: C2'_20  and  O2'_21 
REMARK    4  A    between atoms: C2'_20  and  C3'_22 
REMARK    5  A    between atoms: C3'_22  and  O3'_23 
REMARK    6  A    between atoms: C3'_22  and  C4'_24 
REMARK    7  A    between atoms: C4'_24  and  O4'_25 
REMARK    8  A    between atoms: C4'_24  and  C5'_26 
REMARK    9  A    between atoms: C5'_26  and  O5'_27 
REMARK   10  A    between atoms: O5'_27  and  P_28 
REMARK   11  A    between atoms: P_28  and  O2P_30 
ROOT
HETATM    1  N1  FMN     0      -1.656   1.138   4.417  0.00  0.00    -0.173 NA
HETATM    2  C2  FMN     0      -1.927   2.193   5.182  0.00  0.00     0.350 A 
HETATM    3  O2  FMN     0      -0.989   2.824   5.638  0.00  0.00    -0.244 OA
HETATM    4  N3  FMN     0      -3.166   2.605   5.483  0.00  0.00    -0.272 N 
HETATM    5  C4  FMN     0      -4.256   1.955   5.012  0.00  0.00     0.282 A 
HETATM    6  O4  FMN     0      -5.381   2.327   5.283  0.00  0.00    -0.265 OA
HETATM    7  C4A FMN     0      -4.019   0.773   4.155  0.00  0.00     0.171 A 
HETATM    8  N5  FMN     0      -5.000   0.071   3.649  0.00  0.00    -0.237 NA
HETATM    9  C5A FMN     0      -4.751  -0.996   2.876  0.00  0.00     0.085 A 
HETATM   10  C6  FMN     0      -5.821  -1.738   2.341  0.00  0.00     0.041 A 
HETATM   11  C7  FMN     0      -5.571  -2.822   1.555  0.00  0.00    -0.054 A 
HETATM   12  C7M FMN     0      -6.720  -3.611   0.985  0.00  0.00     0.049 C 
HETATM   13  C8  FMN     0      -4.265  -3.209   1.273  0.00  0.00    -0.054 A 
HETATM   14  C8M FMN     0      -4.015  -4.411   0.400  0.00  0.00     0.049 C 
HETATM   15  C9  FMN     0      -3.198  -2.502   1.782  0.00  0.00     0.039 A 
HETATM   16  C9A FMN     0      -3.424  -1.390   2.589  0.00  0.00     0.065 A 
HETATM   17  N10 FMN     0      -2.360  -0.679   3.102  0.00  0.00    -0.325 N 
HETATM   18  C10 FMN     0      -2.619   0.404   3.886  0.00  0.00     0.170 A 
HETATM   19  HN3 FMN     0      -3.285   3.385   6.047  0.00  0.00     0.174 HD
ENDROOT
BRANCH  17  20
HETATM   20  C1' FMN     0      -0.981  -1.081   2.810  0.00  0.00     0.165 C 
BRANCH  20  21
HETATM   21  C2' FMN     0      -0.651  -0.747   1.354  0.00  0.00     0.167 C 
BRANCH  21  22
HETATM   22  O2' FMN     0      -0.249  -1.937   0.672  0.00  0.00    -0.391 OA
HETATM   23 'HO2 FMN     0      -0.939  -2.323   0.116  0.00  0.00     0.210 HD
ENDBRANCH  21  22
BRANCH  21  24
HETATM   24  C3' FMN     0       0.486   0.276   1.309  0.00  0.00     0.179 C 
BRANCH  24  25
HETATM   25  O3' FMN     0       0.570   0.949   2.567  0.00  0.00    -0.390 OA
HETATM   26 'HO3 FMN     0       0.142   0.477   3.295  0.00  0.00     0.210 HD
ENDBRANCH  24  25
BRANCH  24  27
HETATM   27  C4' FMN     0       0.212   1.296   0.202  0.00  0.00     0.173 C 
BRANCH  27  28
HETATM   28  O4' FMN     0      -1.148   1.730   0.280  0.00  0.00    -0.391 OA
HETATM   29 'HO4 FMN     0      -1.785   1.010   0.383  0.00  0.00     0.210 HD
ENDBRANCH  27  28
BRANCH  27  30
HETATM   30  C5' FMN     0       0.464   0.648  -1.161  0.00  0.00     0.215 C 
BRANCH  30  31
HETATM   31  O5' FMN     0       1.569  -0.253  -1.062  0.00  0.00    -0.287 OA
BRANCH  31  32
HETATM   32  P   FMN     0       2.324  -0.858  -2.348  0.00  0.00     0.406 P 
HETATM   33  O1P FMN     0       2.459  -2.325  -2.198  0.00  0.00    -0.624 OA
HETATM   34  O3P FMN     0       3.786  -0.195  -2.474  0.00  0.00    -0.624 OA
BRANCH  32  35
HETATM   35  O2P FMN     0       1.471  -0.532  -3.674  0.00  0.00    -0.300 OA
HETATM   36 2HOP FMN     0       0.960  -1.282  -4.007  0.00  0.00     0.223 HD
ENDBRANCH  32  35
ENDBRANCH  31  32
ENDBRANCH  30  31
ENDBRANCH  27  30
ENDBRANCH  24  27
ENDBRANCH  21  24
ENDBRANCH  20  21
ENDBRANCH  17  20
TORSDOF 11
BEGIN_RES TYR A  62
REMARK  2 active torsions:
REMARK  status: ('A' for Active; 'I' for Inactive)
REMARK    1  A    between atoms: CA   and  CB  
REMARK    2  A    between atoms: CB   and  CG  
ROOT
ATOM      1  CA  TYR A  62       5.309   9.844   4.113  1.00 98.12     0.189 C 
ENDROOT
BRANCH   1   2
ATOM      2  CB  TYR A  62       4.961   8.852   3.000  1.00 98.12     0.060 C 
BRANCH   2   3
ATOM      3  CG  TYR A  62       4.369   7.556   3.501  1.00 98.12    -0.020 A 
ATOM      4  CD1 TYR A  62       4.430   7.214   4.852  1.00 98.12    -0.002 A 
ATOM      5  CE1 TYR A  62       3.886   6.024   5.317  1.00 98.12     0.027 A 
ATOM      6  CZ  TYR A  62       3.274   5.159   4.425  1.00 98.12     0.131 A 
ATOM      7  CE2 TYR A  62       3.201   5.475   3.081  1.00 98.12     0.027 A 
ATOM      8  OH  TYR A  62       2.735   3.978   4.881  1.00 98.12    -0.190 OA
ATOM      9  CD2 TYR A  62       3.748   6.670   2.626  1.00 98.12    -0.002 A 
ENDBRANCH   2   3
ENDBRANCH   1   2
END_RES TYR A  62
BEGIN_RES TRP A  98
REMARK  2 active torsions:
REMARK  status: ('A' for Active; 'I' for Inactive)
REMARK    3  A    between atoms: CA   and  CB  
REMARK    4  A    between atoms: CB   and  CG  
ROOT
ATOM     10  CA  TRP A  98      -7.906  17.375  17.500  1.00 68.69     0.191 C 
ENDROOT
BRANCH  10  11
ATOM     11  CB  TRP A  98      -6.465  16.891  17.719  1.00 68.69     0.062 C 
BRANCH  11  12
ATOM     12  CG  TRP A  98      -6.159  15.579  17.081  1.00 68.69     0.001 A 
ATOM     13  CD1 TRP A  98      -4.930  14.982  16.946  1.00 68.69     0.095 A 
ATOM     14  NE1 TRP A  98      -5.054  13.777  16.300  1.00 68.69    -0.244 NA
ATOM     15  CE2 TRP A  98      -6.366  13.563  16.003  1.00 68.69     0.081 A 
ATOM     16  CD2 TRP A  98      -7.098  14.682  16.481  1.00 68.69     0.015 A 
ATOM     17  CZ2 TRP A  98      -6.985  12.488  15.352  1.00 68.69     0.019 A 
ATOM     18  CE3 TRP A  98      -8.485  14.711  16.298  1.00 68.69     0.001 A 
ATOM     19  CZ3 TRP A  98      -9.097  13.636  15.654  1.00 68.69     0.000 A 
ATOM     20  CH2 TRP A  98      -8.344  12.542  15.190  1.00 68.69     0.002 A 
ENDBRANCH  11  12
ENDBRANCH  10  11
END_RES TRP A  98
BEGIN_RES PHE A 170
REMARK  2 active torsions:
REMARK  status: ('A' for Active; 'I' for Inactive)
REMARK    5  A    between atoms: CA   and  CB  
REMARK    6  A    between atoms: CB   and  CG  
ROOT
ATOM     21  CA  PHE A 170      -1.354  -4.766   7.742  1.00 97.88     0.191 C 
ENDROOT
BRANCH  21  22
ATOM     22  CB  PHE A 170      -1.077  -5.184   9.195  1.00 97.88     0.060 C 
BRANCH  22  23
ATOM     23  CG  PHE A 170      -0.531  -4.071  10.046  1.00 97.88    -0.020 A 
ATOM     24  CD1 PHE A 170       0.191  -3.030   9.477  1.00 97.88    -0.004 A 
ATOM     25  CE1 PHE A 170       0.698  -1.999  10.266  1.00 97.88    -0.000 A 
ATOM     26  CZ  PHE A 170       0.483  -2.011  11.642  1.00 97.88    -0.000 A 
ATOM     27  CE2 PHE A 170      -0.237  -3.045  12.219  1.00 97.88    -0.000 A 
ATOM     28  CD2 PHE A 170      -0.740  -4.069  11.422  1.00 97.88    -0.004 A 
ENDBRANCH  22  23
ENDBRANCH  21  22
END_RES PHE A 170
BEGIN_RES TYR A 363
REMARK  2 active torsions:
REMARK  status: ('A' for Active; 'I' for Inactive)
REMARK    7  A    between atoms: CA   and  CB  
REMARK    8  A    between atoms: CB   and  CG  
ROOT
ATOM     29  CA  TYR A 363       1.401 -10.820  -2.531  1.00 94.44     0.191 C 
ENDROOT
BRANCH  29  30
ATOM     30  CB  TYR A 363       2.730 -11.156  -3.215  1.00 94.44     0.060 C 
BRANCH  30  31
ATOM     31  CG  TYR A 363       2.567 -11.800  -4.572  1.00 94.44    -0.020 A 
ATOM     32  CD1 TYR A 363       2.614 -11.042  -5.737  1.00 94.44    -0.002 A 
ATOM     33  CE1 TYR A 363       2.463 -11.629  -6.987  1.00 94.44     0.027 A 
ATOM     34  CZ  TYR A 363       2.256 -12.997  -7.074  1.00 94.44     0.131 A 
ATOM     35  CE2 TYR A 363       2.203 -13.774  -5.932  1.00 94.44     0.027 A 
ATOM     36  OH  TYR A 363       2.107 -13.583  -8.309  1.00 94.44    -0.190 OA
ATOM     37  CD2 TYR A 363       2.358 -13.172  -4.690  1.00 94.44    -0.002 A 
ENDBRANCH  30  31
ENDBRANCH  29  30
END_RES TYR A 363
BEGIN_RES TYR A 392
REMARK  2 active torsions:
REMARK  status: ('A' for Active; 'I' for Inactive)
REMARK    9  A    between atoms: CA   and  CB  
REMARK   10  A    between atoms: CB   and  CG  
ROOT
ATOM     38  CA  TYR A 392      10.586  -6.387   1.851  1.00 96.69     0.191 C 
ENDROOT
BRANCH  38  39
ATOM     39  CB  TYR A 392      10.633  -7.707   1.079  1.00 96.69     0.060 C 
BRANCH  39  40
ATOM     40  CG  TYR A 392      11.473  -7.657  -0.172  1.00 96.69    -0.020 A 
ATOM     41  CD1 TYR A 392      10.920  -7.265  -1.389  1.00 96.69    -0.002 A 
ATOM     42  CE1 TYR A 392      11.698  -7.213  -2.545  1.00 96.69     0.027 A 
ATOM     43  CZ  TYR A 392      13.034  -7.562  -2.486  1.00 96.69     0.131 A 
ATOM     44  CE2 TYR A 392      13.601  -7.951  -1.288  1.00 96.69     0.027 A 
ATOM     45  OH  TYR A 392      13.796  -7.516  -3.626  1.00 96.69    -0.190 OA
ATOM     46  CD2 TYR A 392      12.823  -7.997  -0.140  1.00 96.69    -0.002 A 
ENDBRANCH  39  40
ENDBRANCH  38  39
END_RES TYR A 392
ENDMDL
