MODEL 1
REMARK VINA RESULT:    -9.262      0.000      0.000
REMARK INTER + INTRA:         -22.511
REMARK INTER:                  -9.262
REMARK INTRA:                 -13.249
REMARK UNBOUND:               -13.249
REMARK  0 active torsions:
REMARK  status: ('A' for Active; 'I' for Inactive)
ROOT
HETATM    1  N1  LFN     0      -1.768  -1.680   6.280  0.00  0.00    -0.173 NA
HETATM    2  C2  LFN     0      -0.517  -1.233   6.364  0.00  0.00     0.350 A 
HETATM    3  C10 LFN     0      -2.032  -2.945   6.003  0.00  0.00     0.170 A 
HETATM    4  O2  LFN     0      -0.347  -0.054   6.618  0.00  0.00    -0.244 OA
HETATM    5  N3  LFN     0       0.569  -2.000   6.186  0.00  0.00    -0.272 N 
HETATM    6  C4  LFN     0       0.458  -3.318   5.900  0.00  0.00     0.282 A 
HETATM    7  O4  LFN     0       1.440  -4.016   5.738  0.00  0.00    -0.265 OA
HETATM    8  C4A LFN     0      -0.909  -3.874   5.794  0.00  0.00     0.171 A 
HETATM    9  N5  LFN     0      -1.131  -5.135   5.522  0.00  0.00    -0.237 NA
HETATM   10  C5A LFN     0      -2.383  -5.605   5.433  0.00  0.00     0.085 A 
HETATM   11  C6  LFN     0      -2.600  -6.966   5.140  0.00  0.00     0.041 A 
HETATM   12  C9A LFN     0      -3.494  -4.755   5.630  0.00  0.00     0.065 A 
HETATM   13  C7  LFN     0      -3.871  -7.446   5.049  0.00  0.00    -0.054 A 
HETATM   14  C7M LFN     0      -4.096  -8.903   4.735  0.00  0.00     0.049 C 
HETATM   15  C8  LFN     0      -4.964  -6.609   5.243  0.00  0.00    -0.054 A 
HETATM   16  C8M LFN     0      -6.361  -7.165   5.138  0.00  0.00     0.049 C 
HETATM   17  C9  LFN     0      -4.782  -5.274   5.532  0.00  0.00     0.039 A 
HETATM   18  N10 LFN     0      -3.307  -3.420   5.920  0.00  0.00    -0.332 N 
HETATM   19  C1' LFN     0      -4.453  -2.531   6.126  0.00  0.00     0.158 C 
HETATM   20  H3  LFN     0       1.449  -1.602   6.263  0.00  0.00     0.174 HD
ENDROOT
TORSDOF 0
BEGIN_RES TYR A 616
REMARK  2 active torsions:
REMARK  status: ('A' for Active; 'I' for Inactive)
REMARK    1  A    between atoms: CA   and  CB  
REMARK    2  A    between atoms: CB   and  CG  
ROOT
ATOM      1  CA  TYR A 616      -3.375  -5.129  16.031  1.00 96.94     0.191 C 
ENDROOT
BRANCH   1   2
ATOM      2  CB  TYR A 616      -3.174  -4.969  14.516  1.00 96.94     0.060 C 
BRANCH   2   3
ATOM      3  CG  TYR A 616      -2.915  -3.544  14.087  1.00 96.94    -0.020 A 
ATOM      4  CD1 TYR A 616      -2.964  -2.497  15.006  1.00 96.94    -0.002 A 
ATOM      5  CE1 TYR A 616      -2.728  -1.185  14.612  1.00 96.94     0.027 A 
ATOM      6  CZ  TYR A 616      -2.437  -0.910  13.291  1.00 96.94     0.131 A 
ATOM      7  CE2 TYR A 616      -2.382  -1.933  12.355  1.00 96.94     0.027 A 
ATOM      8  OH  TYR A 616      -2.203   0.388  12.897  1.00 96.94    -0.190 OA
ATOM      9  CD2 TYR A 616      -2.620  -3.243  12.758  1.00 96.94    -0.002 A 
ENDBRANCH   2   3
ENDBRANCH   1   2
END_RES TYR A 616
BEGIN_RES TRP A 740
REMARK  2 active torsions:
REMARK  status: ('A' for Active; 'I' for Inactive)
REMARK    3  A    between atoms: CA   and  CB  
REMARK    4  A    between atoms: CB   and  CG  
ROOT
ATOM     10  CA  TRP A 740       7.680 -13.250   9.438  1.00 94.94     0.191 C 
ENDROOT
BRANCH  10  11
ATOM     11  CB  TRP A 740       6.531 -12.234   9.445  1.00 94.94     0.062 C 
BRANCH  11  12
ATOM     12  CG  TRP A 740       6.431 -11.423   8.190  1.00 94.94     0.001 A 
ATOM     13  CD1 TRP A 740       5.989 -11.856   6.965  1.00 94.94     0.095 A 
ATOM     14  NE1 TRP A 740       6.043 -10.824   6.055  1.00 94.94    -0.244 NA
ATOM     15  CE2 TRP A 740       6.529  -9.706   6.681  1.00 94.94     0.081 A 
ATOM     16  CD2 TRP A 740       6.784 -10.050   8.027  1.00 94.94     0.015 A 
ATOM     17  CZ2 TRP A 740       6.764  -8.422   6.177  1.00 94.94     0.019 A 
ATOM     18  CE3 TRP A 740       7.293  -9.072   8.887  1.00 94.94     0.001 A 
ATOM     19  CZ3 TRP A 740       7.529  -7.796   8.391  1.00 94.94     0.000 A 
ATOM     20  CH2 TRP A 740       7.264  -7.486   7.044  1.00 94.94     0.002 A 
ENDBRANCH  11  12
ENDBRANCH  10  11
END_RES TRP A 740
BEGIN_RES TRP A 796
REMARK  2 active torsions:
REMARK  status: ('A' for Active; 'I' for Inactive)
REMARK    5  A    between atoms: CA   and  CB  
REMARK    6  A    between atoms: CB   and  CG  
ROOT
ATOM     21  CA  TRP A 796      -9.992 -12.648   2.629  1.00 97.19     0.191 C 
ENDROOT
BRANCH  21  22
ATOM     22  CB  TRP A 796      -8.977 -11.508   2.633  1.00 97.19     0.062 C 
BRANCH  22  23
ATOM     23  CG  TRP A 796      -8.466 -11.151   3.995  1.00 97.19     0.001 A 
ATOM     24  CD1 TRP A 796      -7.159 -11.013   4.378  1.00 97.19     0.095 A 
ATOM     25  NE1 TRP A 796      -7.087 -10.683   5.711  1.00 97.19    -0.244 NA
ATOM     26  CE2 TRP A 796      -8.357 -10.599   6.218  1.00 97.19     0.081 A 
ATOM     27  CD2 TRP A 796      -9.257 -10.890   5.162  1.00 97.19     0.015 A 
ATOM     28  CZ2 TRP A 796      -8.797 -10.297   7.508  1.00 97.19     0.019 A 
ATOM     29  CE3 TRP A 796     -10.635 -10.878   5.419  1.00 97.19     0.001 A 
ATOM     30  CZ3 TRP A 796     -11.066 -10.575   6.704  1.00 97.19     0.000 A 
ATOM     31  CH2 TRP A 796     -10.149 -10.291   7.731  1.00 97.19     0.002 A 
ENDBRANCH  22  23
ENDBRANCH  21  22
END_RES TRP A 796
BEGIN_RES TRP A 801
REMARK  2 active torsions:
REMARK  status: ('A' for Active; 'I' for Inactive)
REMARK    7  A    between atoms: CA   and  CB  
REMARK    8  A    between atoms: CB   and  CG  
ROOT
ATOM     32  CA  TRP A 801     -17.875  -9.602   4.539  1.00 96.88     0.191 C 
ENDROOT
BRANCH  32  33
ATOM     33  CB  TRP A 801     -18.109  -9.719   6.051  1.00 96.88     0.062 C 
BRANCH  33  34
ATOM     34  CG  TRP A 801     -19.323 -10.523   6.421  1.00 96.88     0.001 A 
ATOM     35  CD1 TRP A 801     -20.622 -10.225   6.118  1.00 96.88     0.095 A 
ATOM     36  NE1 TRP A 801     -21.456 -11.194   6.636  1.00 96.88    -0.244 NA
ATOM     37  CE2 TRP A 801     -20.703 -12.135   7.282  1.00 96.88     0.081 A 
ATOM     38  CD2 TRP A 801     -19.351 -11.739   7.172  1.00 96.88     0.015 A 
ATOM     39  CZ2 TRP A 801     -21.086 -13.285   7.954  1.00 96.88     0.019 A 
ATOM     40  CE3 TRP A 801     -18.358 -12.540   7.753  1.00 96.88     0.001 A 
ATOM     41  CZ3 TRP A 801     -18.747 -13.687   8.425  1.00 96.88     0.000 A 
ATOM     42  CH2 TRP A 801     -20.102 -14.056   8.519  1.00 96.88     0.002 A 
ENDBRANCH  33  34
ENDBRANCH  32  33
END_RES TRP A 801
BEGIN_RES TYR A 806
REMARK  2 active torsions:
REMARK  status: ('A' for Active; 'I' for Inactive)
REMARK    9  A    between atoms: CA   and  CB  
REMARK   10  A    between atoms: CB   and  CG  
ROOT
ATOM     43  CA  TYR A 806      -7.195  -3.736   0.554  1.00 97.62     0.191 C 
ENDROOT
BRANCH  43  44
ATOM     44  CB  TYR A 806      -5.992  -3.217   1.347  1.00 97.62     0.060 C 
BRANCH  44  45
ATOM     45  CG  TYR A 806      -4.736  -4.029   1.144  1.00 97.62    -0.020 A 
ATOM     46  CD1 TYR A 806      -4.471  -5.146   1.932  1.00 97.62    -0.002 A 
ATOM     47  CE1 TYR A 806      -3.314  -5.897   1.751  1.00 97.62     0.027 A 
ATOM     48  CZ  TYR A 806      -2.412  -5.526   0.771  1.00 97.62     0.131 A 
ATOM     49  CE2 TYR A 806      -2.652  -4.420  -0.024  1.00 97.62     0.027 A 
ATOM     50  OH  TYR A 806      -1.264  -6.265   0.587  1.00 97.62    -0.190 OA
ATOM     51  CD2 TYR A 806      -3.812  -3.678   0.166  1.00 97.62    -0.002 A 
ENDBRANCH  44  45
ENDBRANCH  43  44
END_RES TYR A 806
ENDMDL
