MODEL 1
REMARK VINA RESULT:    -9.124      0.000      0.000
REMARK INTER + INTRA:         -35.490
REMARK INTER:                 -18.192
REMARK INTRA:                 -17.298
REMARK UNBOUND:               -17.298
REMARK  21 active torsions:
REMARK  status: ('A' for Active; 'I' for Inactive)
REMARK    1  A    between atoms: PA_1  and  O2A_3 
REMARK    2  A    between atoms: PA_1  and  O5B_4 
REMARK    3  A    between atoms: PA_1  and  O3P_53 
REMARK    4  A    between atoms: O5B_4  and  C5B_5 
REMARK    5  A    between atoms: C5B_5  and  C4B_6 
REMARK    6  A    between atoms: C3B_8  and  O3B_9 
REMARK    7  A    between atoms: C2B_10  and  O2B_11 
REMARK    8  A    between atoms: C1B_12  and  N9A_13 
REMARK    9  A    between atoms: C6A_17  and  N6A_18 
REMARK   10  A    between atoms: N10_39  and  C1'_41 
REMARK   11  A    between atoms: C1'_41  and  C2'_42 
REMARK   12  A    between atoms: C2'_42  and  O2'_43 
REMARK   13  A    between atoms: C2'_42  and  C3'_44 
REMARK   14  A    between atoms: C3'_44  and  O3'_45 
REMARK   15  A    between atoms: C3'_44  and  C4'_46 
REMARK   16  A    between atoms: C4'_46  and  O4'_47 
REMARK   17  A    between atoms: C4'_46  and  C5'_48 
REMARK   18  A    between atoms: C5'_48  and  O5'_49 
REMARK   19  A    between atoms: O5'_49  and  P_50 
REMARK   20  A    between atoms: P_50  and  O2P_52 
REMARK   21  A    between atoms: P_50  and  O3P_53 
ROOT
HETATM    1  P   FAD     0       0.991   0.246  -0.154  0.00  0.00     0.401 P 
HETATM    2  O1P FAD     0       1.136   1.657   0.265  0.00  0.00    -0.631 OA
ENDROOT
BRANCH   1   3
HETATM    3  O5' FAD     0       1.801   0.008  -1.525  0.00  0.00    -0.294 OA
BRANCH   3   4
HETATM    4  C5' FAD     0       2.615   1.163  -1.730  0.00  0.00     0.215 C 
BRANCH   4   5
HETATM    5  C4' FAD     0       3.368   1.029  -3.055  0.00  0.00     0.173 C 
BRANCH   5   6
HETATM    6  C3' FAD     0       4.874   1.028  -2.789  0.00  0.00     0.179 C 
BRANCH   6   7
HETATM    7  C2' FAD     0       5.184   0.101  -1.612  0.00  0.00     0.167 C 
BRANCH   7   8
HETATM    8  C1' FAD     0       5.908   0.890  -0.518  0.00  0.00     0.165 C 
BRANCH   8   9
HETATM    9  N10 FAD     0       5.222   0.692   0.760  0.00  0.00    -0.325 N 
HETATM   10  C9A FAD     0       4.504   1.716   1.341  0.00  0.00     0.065 A 
HETATM   11  C5X FAD     0       3.846   1.516   2.575  0.00  0.00     0.085 A 
HETATM   12  C9  FAD     0       4.422   2.955   0.711  0.00  0.00     0.039 A 
HETATM   13  N5  FAD     0       3.905   0.335   3.204  0.00  0.00    -0.237 NA
HETATM   14  C6  FAD     0       3.118   2.579   3.147  0.00  0.00     0.041 A 
HETATM   15  C4X FAD     0       4.576  -0.663   2.689  0.00  0.00     0.171 A 
HETATM   16  C4  FAD     0       4.665  -1.981   3.354  0.00  0.00     0.282 A 
HETATM   17  C10 FAD     0       5.281  -0.505   1.405  0.00  0.00     0.170 A 
HETATM   18  N3  FAD     0       5.388  -2.940   2.730  0.00  0.00    -0.272 N 
HETATM   19  O4  FAD     0       4.113  -2.194   4.416  0.00  0.00    -0.265 OA
HETATM   20  C2  FAD     0       5.996  -2.702   1.559  0.00  0.00     0.350 A 
HETATM   21  HN3 FAD     0       5.468  -3.816   3.138  0.00  0.00     0.174 HD
HETATM   22  N1  FAD     0       5.948  -1.538   0.918  0.00  0.00    -0.173 NA
HETATM   23  O2  FAD     0       6.631  -3.610   1.051  0.00  0.00    -0.244 OA
HETATM   24  C7  FAD     0       3.055   3.780   2.509  0.00  0.00    -0.054 A 
HETATM   25  C7M FAD     0       2.274   4.911   3.126  0.00  0.00     0.049 C 
HETATM   26  C8  FAD     0       3.699   3.974   1.292  0.00  0.00    -0.054 A 
HETATM   27  C8M FAD     0       3.613   5.313   0.606  0.00  0.00     0.049 C 
ENDBRANCH   8   9
ENDBRANCH   7   8
BRANCH   7  28
HETATM   28  O2' FAD     0       6.019  -0.970  -2.057  0.00  0.00    -0.391 OA
HETATM   29 'HO2 FAD     0       5.703  -1.772  -1.619  0.00  0.00     0.210 HD
ENDBRANCH   7  28
ENDBRANCH   6   7
BRANCH   6  30
HETATM   30  O3' FAD     0       5.303   2.355  -2.476  0.00  0.00    -0.390 OA
HETATM   31 'HO3 FAD     0       6.221   2.289  -2.178  0.00  0.00     0.210 HD
ENDBRANCH   6  30
ENDBRANCH   5   6
BRANCH   5  32
HETATM   32  O4' FAD     0       3.036   2.131  -3.902  0.00  0.00    -0.391 OA
HETATM   33 'HO4 FAD     0       3.872   2.517  -4.200  0.00  0.00     0.210 HD
ENDBRANCH   5  32
ENDBRANCH   4   5
ENDBRANCH   3   4
ENDBRANCH   1   3
BRANCH   1  34
HETATM   34  O2P FAD     0      -0.566  -0.088  -0.387  0.00  0.00    -0.307 OA
HETATM   35 2HOP FAD     0      -0.916   0.600  -0.969  0.00  0.00     0.222 HD
ENDBRANCH   1  34
BRANCH   1  36
HETATM   36  O3P FAD     0       1.581  -0.718   0.992  0.00  0.00    -0.195 OA
BRANCH  36  37
HETATM   37  PA  FAD     0       0.441  -0.855   2.119  0.00  0.00     0.401 P 
HETATM   38  O1A FAD     0      -0.543  -1.879   1.702  0.00  0.00    -0.631 OA
BRANCH  37  39
HETATM   39  O2A FAD     0      -0.304   0.561   2.302  0.00  0.00    -0.307 OA
HETATM   40 2HOA FAD     0      -0.626   0.822   1.430  0.00  0.00     0.222 HD
ENDBRANCH  37  39
BRANCH  37  41
HETATM   41  O5B FAD     0       1.113  -1.292   3.515  0.00  0.00    -0.294 OA
BRANCH  41  42
HETATM   42  C5B FAD     0       0.071  -1.297   4.492  0.00  0.00     0.215 C 
BRANCH  42  43
HETATM   43  C4B FAD     0       0.104  -2.615   5.267  0.00  0.00     0.180 C 
HETATM   44  O4B FAD     0      -1.227  -2.983   5.664  0.00  0.00    -0.353 OA
HETATM   45  C1B FAD     0      -1.297  -4.425   5.622  0.00  0.00     0.262 C 
HETATM   46  C2B FAD     0      -0.501  -4.787   4.344  0.00  0.00     0.198 C 
HETATM   47  C3B FAD     0       0.644  -3.741   4.365  0.00  0.00     0.182 C 
BRANCH  45  48
HETATM   48  N9A FAD     0      -2.687  -4.871   5.513  0.00  0.00    -0.294 N 
HETATM   49  C8A FAD     0      -3.795  -4.077   5.553  0.00  0.00     0.214 A 
HETATM   50  N7A FAD     0      -4.866  -4.804   5.426  0.00  0.00    -0.236 NA
HETATM   51  C5A FAD     0      -4.516  -6.106   5.296  0.00  0.00     0.149 A 
HETATM   52  C6A FAD     0      -5.225  -7.309   5.133  0.00  0.00     0.155 A 
HETATM   53  C4A FAD     0      -3.114  -6.164   5.346  0.00  0.00     0.167 A 
HETATM   54  N1A FAD     0      -4.536  -8.441   5.038  0.00  0.00    -0.222 NA
HETATM   55  C2A FAD     0      -3.217  -8.446   5.094  0.00  0.00     0.237 A 
HETATM   56  N3A FAD     0      -2.512  -7.345   5.247  0.00  0.00    -0.222 NA
BRANCH  52  57
HETATM   57  N6A FAD     0      -6.608  -7.313   5.072  0.00  0.00    -0.382 N 
HETATM   58 AH61 FAD     0      -7.125  -7.649   5.820  0.00  0.00     0.157 HD
HETATM   59 AH62 FAD     0      -7.059  -6.980   4.281  0.00  0.00     0.157 HD
ENDBRANCH  52  57
ENDBRANCH  45  48
BRANCH  46  60
HETATM   60  O2B FAD     0       0.021  -6.115   4.427  0.00  0.00    -0.388 OA
HETATM   61 AHO2 FAD     0       0.515  -6.169   5.257  0.00  0.00     0.210 HD
ENDBRANCH  46  60
BRANCH  47  62
HETATM   62  O3B FAD     0       1.832  -4.310   4.918  0.00  0.00    -0.390 OA
HETATM   63 AHO3 FAD     0       1.560  -5.084   5.430  0.00  0.00     0.210 HD
ENDBRANCH  47  62
ENDBRANCH  42  43
ENDBRANCH  41  42
ENDBRANCH  37  41
ENDBRANCH  36  37
ENDBRANCH   1  36
TORSDOF 21
BEGIN_RES TYR A 616
REMARK  2 active torsions:
REMARK  status: ('A' for Active; 'I' for Inactive)
REMARK    1  A    between atoms: CA   and  CB  
REMARK    2  A    between atoms: CB   and  CG  
ROOT
ATOM      1  CA  TYR A 616      -3.375  -5.129  16.031  1.00 96.94     0.191 C 
ENDROOT
BRANCH   1   2
ATOM      2  CB  TYR A 616      -3.174  -4.969  14.516  1.00 96.94     0.060 C 
BRANCH   2   3
ATOM      3  CG  TYR A 616      -2.910  -3.544  14.087  1.00 96.94    -0.020 A 
ATOM      4  CD1 TYR A 616      -2.929  -2.502  15.012  1.00 96.94    -0.002 A 
ATOM      5  CE1 TYR A 616      -2.689  -1.190  14.618  1.00 96.94     0.027 A 
ATOM      6  CZ  TYR A 616      -2.422  -0.912  13.293  1.00 96.94     0.131 A 
ATOM      7  CE2 TYR A 616      -2.397  -1.931  12.351  1.00 96.94     0.027 A 
ATOM      8  OH  TYR A 616      -2.183   0.385  12.899  1.00 96.94    -0.190 OA
ATOM      9  CD2 TYR A 616      -2.639  -3.241  12.754  1.00 96.94    -0.002 A 
ENDBRANCH   2   3
ENDBRANCH   1   2
END_RES TYR A 616
BEGIN_RES TRP A 740
REMARK  2 active torsions:
REMARK  status: ('A' for Active; 'I' for Inactive)
REMARK    3  A    between atoms: CA   and  CB  
REMARK    4  A    between atoms: CB   and  CG  
ROOT
ATOM     10  CA  TRP A 740       7.680 -13.250   9.438  1.00 94.94     0.191 C 
ENDROOT
BRANCH  10  11
ATOM     11  CB  TRP A 740       6.531 -12.234   9.445  1.00 94.94     0.062 C 
BRANCH  11  12
ATOM     12  CG  TRP A 740       6.428 -11.426   8.188  1.00 94.94     0.001 A 
ATOM     13  CD1 TRP A 740       5.982 -11.862   6.966  1.00 94.94     0.095 A 
ATOM     14  NE1 TRP A 740       6.035 -10.833   6.053  1.00 94.94    -0.244 NA
ATOM     15  CE2 TRP A 740       6.523  -9.714   6.674  1.00 94.94     0.081 A 
ATOM     16  CD2 TRP A 740       6.782 -10.054   8.020  1.00 94.94     0.015 A 
ATOM     17  CZ2 TRP A 740       6.758  -8.431   6.166  1.00 94.94     0.019 A 
ATOM     18  CE3 TRP A 740       7.294  -9.074   8.877  1.00 94.94     0.001 A 
ATOM     19  CZ3 TRP A 740       7.529  -7.799   8.377  1.00 94.94     0.000 A 
ATOM     20  CH2 TRP A 740       7.261  -7.493   7.029  1.00 94.94     0.002 A 
ENDBRANCH  11  12
ENDBRANCH  10  11
END_RES TRP A 740
BEGIN_RES TRP A 796
REMARK  2 active torsions:
REMARK  status: ('A' for Active; 'I' for Inactive)
REMARK    5  A    between atoms: CA   and  CB  
REMARK    6  A    between atoms: CB   and  CG  
ROOT
ATOM     21  CA  TRP A 796      -9.992 -12.648   2.629  1.00 97.19     0.191 C 
ENDROOT
BRANCH  21  22
ATOM     22  CB  TRP A 796      -8.977 -11.508   2.633  1.00 97.19     0.062 C 
BRANCH  22  23
ATOM     23  CG  TRP A 796      -8.514 -11.108   4.001  1.00 97.19     0.001 A 
ATOM     24  CD1 TRP A 796      -7.226 -10.874   4.401  1.00 97.19     0.095 A 
ATOM     25  NE1 TRP A 796      -7.199 -10.533   5.733  1.00 97.19    -0.244 NA
ATOM     26  CE2 TRP A 796      -8.479 -10.539   6.221  1.00 97.19     0.081 A 
ATOM     27  CD2 TRP A 796      -9.339 -10.899   5.154  1.00 97.19     0.015 A 
ATOM     28  CZ2 TRP A 796      -8.960 -10.263   7.503  1.00 97.19     0.019 A 
ATOM     29  CE3 TRP A 796     -10.718 -10.986   5.390  1.00 97.19     0.001 A 
ATOM     30  CZ3 TRP A 796     -11.190 -10.707   6.667  1.00 97.19     0.000 A 
ATOM     31  CH2 TRP A 796     -10.311 -10.353   7.705  1.00 97.19     0.002 A 
ENDBRANCH  22  23
ENDBRANCH  21  22
END_RES TRP A 796
BEGIN_RES TRP A 801
REMARK  2 active torsions:
REMARK  status: ('A' for Active; 'I' for Inactive)
REMARK    7  A    between atoms: CA   and  CB  
REMARK    8  A    between atoms: CB   and  CG  
ROOT
ATOM     32  CA  TRP A 801     -17.875  -9.602   4.539  1.00 96.88     0.191 C 
ENDROOT
BRANCH  32  33
ATOM     33  CB  TRP A 801     -18.109  -9.719   6.051  1.00 96.88     0.062 C 
BRANCH  33  34
ATOM     34  CG  TRP A 801     -19.318 -10.529   6.422  1.00 96.88     0.001 A 
ATOM     35  CD1 TRP A 801     -20.620 -10.238   6.118  1.00 96.88     0.095 A 
ATOM     36  NE1 TRP A 801     -21.448 -11.211   6.636  1.00 96.88    -0.244 NA
ATOM     37  CE2 TRP A 801     -20.691 -12.149   7.283  1.00 96.88     0.081 A 
ATOM     38  CD2 TRP A 801     -19.341 -11.746   7.172  1.00 96.88     0.015 A 
ATOM     39  CZ2 TRP A 801     -21.067 -13.300   7.954  1.00 96.88     0.019 A 
ATOM     40  CE3 TRP A 801     -18.343 -12.541   7.752  1.00 96.88     0.001 A 
ATOM     41  CZ3 TRP A 801     -18.726 -13.690   8.424  1.00 96.88     0.000 A 
ATOM     42  CH2 TRP A 801     -20.080 -14.066   8.519  1.00 96.88     0.002 A 
ENDBRANCH  33  34
ENDBRANCH  32  33
END_RES TRP A 801
BEGIN_RES TYR A 806
REMARK  2 active torsions:
REMARK  status: ('A' for Active; 'I' for Inactive)
REMARK    9  A    between atoms: CA   and  CB  
REMARK   10  A    between atoms: CB   and  CG  
ROOT
ATOM     43  CA  TYR A 806      -7.195  -3.736   0.554  1.00 97.62     0.191 C 
ENDROOT
BRANCH  43  44
ATOM     44  CB  TYR A 806      -5.992  -3.217   1.347  1.00 97.62     0.060 C 
BRANCH  44  45
ATOM     45  CG  TYR A 806      -4.735  -4.029   1.143  1.00 97.62    -0.020 A 
ATOM     46  CD1 TYR A 806      -4.469  -5.144   1.933  1.00 97.62    -0.002 A 
ATOM     47  CE1 TYR A 806      -3.312  -5.895   1.750  1.00 97.62     0.027 A 
ATOM     48  CZ  TYR A 806      -2.411  -5.524   0.769  1.00 97.62     0.131 A 
ATOM     49  CE2 TYR A 806      -2.654  -4.420  -0.028  1.00 97.62     0.027 A 
ATOM     50  OH  TYR A 806      -1.263  -6.263   0.584  1.00 97.62    -0.190 OA
ATOM     51  CD2 TYR A 806      -3.813  -3.678   0.164  1.00 97.62    -0.002 A 
ENDBRANCH  44  45
ENDBRANCH  43  44
END_RES TYR A 806
ENDMDL
