REMARK  21 active torsions:
REMARK  status: ('A' for Active; 'I' for Inactive)
REMARK    1  A    between atoms: PA_1  and  O2A_3 
REMARK    2  A    between atoms: PA_1  and  O5B_4 
REMARK    3  A    between atoms: PA_1  and  O3P_53 
REMARK    4  A    between atoms: O5B_4  and  C5B_5 
REMARK    5  A    between atoms: C5B_5  and  C4B_6 
REMARK    6  A    between atoms: C3B_8  and  O3B_9 
REMARK    7  A    between atoms: C2B_10  and  O2B_11 
REMARK    8  A    between atoms: C1B_12  and  N9A_13 
REMARK    9  A    between atoms: C6A_17  and  N6A_18 
REMARK   10  A    between atoms: N10_39  and  C1'_41 
REMARK   11  A    between atoms: C1'_41  and  C2'_42 
REMARK   12  A    between atoms: C2'_42  and  O2'_43 
REMARK   13  A    between atoms: C2'_42  and  C3'_44 
REMARK   14  A    between atoms: C3'_44  and  O3'_45 
REMARK   15  A    between atoms: C3'_44  and  C4'_46 
REMARK   16  A    between atoms: C4'_46  and  O4'_47 
REMARK   17  A    between atoms: C4'_46  and  C5'_48 
REMARK   18  A    between atoms: C5'_48  and  O5'_49 
REMARK   19  A    between atoms: O5'_49  and  P_50 
REMARK   20  A    between atoms: P_50  and  O2P_52 
REMARK   21  A    between atoms: P_50  and  O3P_53 
ROOT
HETATM    1  P   FAD     0      -1.239  -0.662  -0.677  0.00  0.00     0.401 P 
HETATM    2  O1P FAD     0      -0.354  -1.835  -0.853  0.00  0.00    -0.631 OA
ENDROOT
BRANCH   1   3
HETATM    3  O5' FAD     0      -0.763   0.179   0.610  0.00  0.00    -0.294 OA
BRANCH   3   4
HETATM    4  C5' FAD     0      -0.854  -0.697   1.734  0.00  0.00     0.215 C 
BRANCH   4   5
HETATM    5  C4' FAD     0      -0.413   0.044   2.997  0.00  0.00     0.173 C 
BRANCH   5   6
HETATM    6  C3' FAD     0      -0.511  -0.895   4.201  0.00  0.00     0.179 C 
BRANCH   6   7
HETATM    7  C2' FAD     0      -0.070  -0.153   5.464  0.00  0.00     0.167 C 
BRANCH   7   8
HETATM    8  C1' FAD     0      -0.168  -1.093   6.668  0.00  0.00     0.165 C 
BRANCH   8   9
HETATM    9  N10 FAD     0       0.253  -0.382   7.877  0.00  0.00    -0.325 N 
HETATM   10  C9A FAD     0       1.572  -0.393   8.278  0.00  0.00     0.065 A 
HETATM   11  C5X FAD     0       1.969   0.295   9.446  0.00  0.00     0.085 A 
HETATM   12  C9  FAD     0       2.523  -1.082   7.529  0.00  0.00     0.039 A 
HETATM   13  N5  FAD     0       1.078   0.968  10.185  0.00  0.00    -0.237 NA
HETATM   14  C6  FAD     0       3.324   0.270   9.833  0.00  0.00     0.041 A 
HETATM   15  C4X FAD     0      -0.184   1.003   9.842  0.00  0.00     0.171 A 
HETATM   16  C4  FAD     0      -1.197   1.734  10.634  0.00  0.00     0.282 A 
HETATM   17  C10 FAD     0      -0.649   0.301   8.634  0.00  0.00     0.170 A 
HETATM   18  N3  FAD     0      -2.474   1.701  10.185  0.00  0.00    -0.272 N 
HETATM   19  O4  FAD     0      -0.897   2.340  11.644  0.00  0.00    -0.265 OA
HETATM   20  C2  FAD     0      -2.802   1.033   9.070  0.00  0.00     0.350 A 
HETATM   21  HN3 FAD     0      -3.164   2.169  10.679  0.00  0.00     0.174 HD
HETATM   22  N1  FAD     0      -1.933   0.360   8.321  0.00  0.00    -0.173 NA
HETATM   23  O2  FAD     0      -3.970   1.043   8.721  0.00  0.00    -0.244 OA
HETATM   24  C7  FAD     0       4.232  -0.412   9.082  0.00  0.00    -0.054 A 
HETATM   25  C7M FAD     0       5.679  -0.434   9.502  0.00  0.00     0.049 C 
HETATM   26  C8  FAD     0       3.841  -1.085   7.930  0.00  0.00    -0.054 A 
HETATM   27  C8M FAD     0       4.866  -1.832   7.116  0.00  0.00     0.049 C 
ENDBRANCH   8   9
ENDBRANCH   7   8
BRANCH   7  28
HETATM   28  O2' FAD     0      -0.919   0.977   5.673  0.00  0.00    -0.391 OA
HETATM   29 'HO2 FAD     0      -1.819   0.637   5.771  0.00  0.00     0.210 HD
ENDBRANCH   7  28
ENDBRANCH   6   7
BRANCH   6  30
HETATM   30  O3' FAD     0       0.337  -2.026   3.992  0.00  0.00    -0.390 OA
HETATM   31 'HO3 FAD     0       1.237  -1.686   3.894  0.00  0.00     0.210 HD
ENDBRANCH   6  30
ENDBRANCH   5   6
BRANCH   5  32
HETATM   32  O4' FAD     0      -1.262   1.174   3.206  0.00  0.00    -0.391 OA
HETATM   33 'HO4 FAD     0      -2.162   0.834   3.304  0.00  0.00     0.210 HD
ENDBRANCH   5  32
ENDBRANCH   4   5
ENDBRANCH   3   4
ENDBRANCH   1   3
BRANCH   1  34
HETATM   34  O2P FAD     0      -2.754  -1.160  -0.462  0.00  0.00    -0.307 OA
HETATM   35 2HOP FAD     0      -3.296  -0.367  -0.351  0.00  0.00     0.222 HD
ENDBRANCH   1  34
BRANCH   1  36
HETATM   36  O3P FAD     0      -1.161   0.270  -1.987  0.00  0.00    -0.195 OA
BRANCH  36  37
HETATM   37  PA  FAD     0      -1.648  -0.629  -3.229  0.00  0.00     0.401 P 
HETATM   38  O1A FAD     0      -3.035  -1.088  -2.992  0.00  0.00    -0.631 OA
BRANCH  37  39
HETATM   39  O2A FAD     0      -0.678  -1.906  -3.378  0.00  0.00    -0.307 OA
HETATM   40 2HOA FAD     0       0.212  -1.564  -3.531  0.00  0.00     0.222 HD
ENDBRANCH  37  39
BRANCH  37  41
HETATM   41  O5B FAD     0      -1.595   0.245  -4.580  0.00  0.00    -0.294 OA
BRANCH  41  42
HETATM   42  C5B FAD     0      -2.036  -0.605  -5.640  0.00  0.00     0.215 C 
BRANCH  42  43
HETATM   43  C4B FAD     0      -2.009   0.169  -6.959  0.00  0.00     0.180 C 
HETATM   44  O4B FAD     0      -0.665   0.583  -7.256  0.00  0.00    -0.353 OA
HETATM   45  C1B FAD     0      -0.518   0.541  -8.692  0.00  0.00     0.262 C 
HETATM   46  C2B FAD     0      -1.277  -0.748  -9.095  0.00  0.00     0.198 C 
HETATM   47  C3B FAD     0      -2.476  -0.741  -8.111  0.00  0.00     0.182 C 
BRANCH  45  48
HETATM   48  N9A FAD     0       0.895   0.449  -9.063  0.00  0.00    -0.294 N 
HETATM   49  C8A FAD     0       1.889  -0.118  -8.322  0.00  0.00     0.214 A 
HETATM   50  N7A FAD     0       3.023  -0.024  -8.953  0.00  0.00    -0.236 NA
HETATM   51  C5A FAD     0       2.830   0.606 -10.136  0.00  0.00     0.149 A 
HETATM   52  C6A FAD     0       3.663   0.979 -11.205  0.00  0.00     0.155 A 
HETATM   53  C4A FAD     0       1.462   0.914 -10.223  0.00  0.00     0.167 A 
HETATM   54  N1A FAD     0       3.119   1.607 -12.242  0.00  0.00    -0.222 NA
HETATM   55  C2A FAD     0       1.827   1.878 -12.277  0.00  0.00     0.237 A 
HETATM   56  N3A FAD     0       1.010   1.549 -11.299  0.00  0.00    -0.222 NA
BRANCH  52  57
HETATM   57  N6A FAD     0       5.018   0.698 -11.178  0.00  0.00    -0.382 N 
HETATM   58 AH61 FAD     0       5.582   0.960 -11.922  0.00  0.00     0.157 HD
HETATM   59 AH62 FAD     0       5.403   0.239 -10.415  0.00  0.00     0.157 HD
ENDBRANCH  52  57
ENDBRANCH  45  48
BRANCH  46  60
HETATM   60  O2B FAD     0      -1.728  -0.672 -10.449  0.00  0.00    -0.388 OA
HETATM   61 AHO2 FAD     0      -2.190  -1.501 -10.636  0.00  0.00     0.210 HD
ENDBRANCH  46  60
BRANCH  47  62
HETATM   62  O3B FAD     0      -3.639  -0.203  -8.744  0.00  0.00    -0.390 OA
HETATM   63 AHO3 FAD     0      -3.845  -0.782  -9.490  0.00  0.00     0.210 HD
ENDBRANCH  47  62
ENDBRANCH  42  43
ENDBRANCH  41  42
ENDBRANCH  37  41
ENDBRANCH  36  37
ENDBRANCH   1  36
TORSDOF 21
