MODEL 1
REMARK VINA RESULT:    -7.700      0.000      0.000
REMARK INTER + INTRA:         -21.934
REMARK INTER:                  -7.700
REMARK INTRA:                 -14.234
REMARK UNBOUND:               -14.234
REMARK  0 active torsions:
REMARK  status: ('A' for Active; 'I' for Inactive)
ROOT
HETATM    1  N1  LFN     0      -2.985   6.289  -6.564  0.00  0.00    -0.173 NA
HETATM    2  C2  LFN     0      -4.192   6.364  -7.120  0.00  0.00     0.350 A 
HETATM    3  C10 LFN     0      -1.959   6.970  -7.045  0.00  0.00     0.170 A 
HETATM    4  O2  LFN     0      -5.090   5.706  -6.626  0.00  0.00    -0.244 OA
HETATM    5  N3  LFN     0      -4.480   7.119  -8.190  0.00  0.00    -0.272 N 
HETATM    6  C4  LFN     0      -3.533   7.877  -8.791  0.00  0.00     0.282 A 
HETATM    7  O4  LFN     0      -3.793   8.562  -9.761  0.00  0.00    -0.265 OA
HETATM    8  C4A LFN     0      -2.171   7.834  -8.218  0.00  0.00     0.171 A 
HETATM    9  N5  LFN     0      -1.180   8.527  -8.720  0.00  0.00    -0.237 NA
HETATM   10  C5A LFN     0       0.043   8.466  -8.175  0.00  0.00     0.085 A 
HETATM   11  C6  LFN     0       1.095   9.220  -8.732  0.00  0.00     0.041 A 
HETATM   12  C9A LFN     0       0.296   7.655  -7.046  0.00  0.00     0.065 A 
HETATM   13  C7  LFN     0       2.339   9.160  -8.180  0.00  0.00    -0.054 A 
HETATM   14  C7M LFN     0       3.460   9.968  -8.780  0.00  0.00     0.049 C 
HETATM   15  C8  LFN     0       2.586   8.360  -7.069  0.00  0.00    -0.054 A 
HETATM   16  C8M LFN     0       3.972   8.312  -6.477  0.00  0.00     0.049 C 
HETATM   17  C9  LFN     0       1.577   7.613  -6.503  0.00  0.00     0.039 A 
HETATM   18  N10 LFN     0      -0.718   6.909  -6.484  0.00  0.00    -0.332 N 
HETATM   19  C1' LFN     0      -0.466   6.065  -5.313  0.00  0.00     0.158 C 
HETATM   20  H3  LFN     0      -5.385   7.122  -8.539  0.00  0.00     0.174 HD
ENDROOT
TORSDOF 0
BEGIN_RES PHE A 116
REMARK  2 active torsions:
REMARK  status: ('A' for Active; 'I' for Inactive)
REMARK    1  A    between atoms: CA   and  CB  
REMARK    2  A    between atoms: CB   and  CG  
ROOT
ATOM      1  CA  PHE A 116     -16.359   5.324   0.093  1.00 97.75     0.191 C 
ENDROOT
BRANCH   1   2
ATOM      2  CB  PHE A 116     -15.203   6.316   0.005  1.00 97.75     0.060 C 
BRANCH   2   3
ATOM      3  CG  PHE A 116     -13.846   5.683   0.192  1.00 97.75    -0.020 A 
ATOM      4  CD1 PHE A 116     -13.173   5.810   1.399  1.00 97.75    -0.004 A 
ATOM      5  CE1 PHE A 116     -11.919   5.224   1.573  1.00 97.75    -0.000 A 
ATOM      6  CZ  PHE A 116     -11.339   4.512   0.536  1.00 97.75    -0.000 A 
ATOM      7  CE2 PHE A 116     -12.005   4.380  -0.670  1.00 97.75    -0.000 A 
ATOM      8  CD2 PHE A 116     -13.257   4.965  -0.838  1.00 97.75    -0.004 A 
ENDBRANCH   2   3
ENDBRANCH   1   2
END_RES PHE A 116
BEGIN_RES PHE A 139
REMARK  2 active torsions:
REMARK  status: ('A' for Active; 'I' for Inactive)
REMARK    3  A    between atoms: CA   and  CB  
REMARK    4  A    between atoms: CB   and  CG  
ROOT
ATOM      9  CA  PHE A 139      -0.122  12.547  -8.344  1.00 87.06     0.191 C 
ENDROOT
BRANCH   9  10
ATOM     10  CB  PHE A 139       1.194  11.922  -7.867  1.00 87.06     0.060 C 
BRANCH  10  11
ATOM     11  CG  PHE A 139       1.644  12.414  -6.521  1.00 87.06    -0.020 A 
ATOM     12  CD1 PHE A 139       1.646  11.559  -5.422  1.00 87.06    -0.004 A 
ATOM     13  CE1 PHE A 139       2.061  12.010  -4.166  1.00 87.06    -0.000 A 
ATOM     14  CZ  PHE A 139       2.475  13.326  -4.015  1.00 87.06    -0.000 A 
ATOM     15  CE2 PHE A 139       2.472  14.182  -5.097  1.00 87.06    -0.000 A 
ATOM     16  CD2 PHE A 139       2.060  13.728  -6.347  1.00 87.06    -0.004 A 
ENDBRANCH  10  11
ENDBRANCH   9  10
END_RES PHE A 139
BEGIN_RES ARG A 158
REMARK  4 active torsions:
REMARK  status: ('A' for Active; 'I' for Inactive)
REMARK    5  A    between atoms: CA   and  CB  
REMARK    6  A    between atoms: CB   and  CG  
REMARK    7  A    between atoms: CG   and  CD  
REMARK    8  A    between atoms: CD   and  NE  
REMARK       I    between atoms: NE   and  CZ  
ROOT
ATOM     17  CA  ARG A 158      -3.961  17.859  -2.131  1.00 94.38     0.186 C 
ENDROOT
BRANCH  17  18
ATOM     18  CB  ARG A 158      -3.025  16.984  -2.969  1.00 94.38     0.036 C 
BRANCH  18  19
ATOM     19  CG  ARG A 158      -3.731  16.193  -4.058  1.00 94.38     0.029 C 
BRANCH  19  20
ATOM     20  CD  ARG A 158      -3.621  16.870  -5.414  1.00 94.38     0.145 C 
BRANCH  20  21
ATOM     21  NE  ARG A 158      -3.917  15.940  -6.501  1.00 94.38    -0.083 NA
ATOM     22  CZ  ARG A 158      -5.110  15.787  -7.067  1.00 94.38     0.782 C 
ATOM     23  NH1 ARG A 158      -6.148  16.526  -6.671  1.00 94.38     0.063 N 
ATOM     24  NH2 ARG A 158      -5.272  14.920  -8.051  1.00 94.38     0.063 N 
ENDBRANCH  20  21
ENDBRANCH  19  20
ENDBRANCH  18  19
ENDBRANCH  17  18
END_RES ARG A 158
BEGIN_RES TYR A 159
REMARK  2 active torsions:
REMARK  status: ('A' for Active; 'I' for Inactive)
REMARK    9  A    between atoms: CA   and  CB  
REMARK   10  A    between atoms: CB   and  CG  
ROOT
ATOM     25  CA  TYR A 159      -3.225  17.047   1.506  1.00 96.44     0.191 C 
ENDROOT
BRANCH  25  26
ATOM     26  CB  TYR A 159      -1.847  17.188   2.160  1.00 96.44     0.060 C 
BRANCH  26  27
ATOM     27  CG  TYR A 159      -0.892  16.077   1.812  1.00 96.44    -0.020 A 
ATOM     28  CD1 TYR A 159      -1.081  14.782   2.309  1.00 96.44    -0.002 A 
ATOM     29  CE1 TYR A 159      -0.203  13.752   1.994  1.00 96.44     0.027 A 
ATOM     30  CZ  TYR A 159       0.877  14.010   1.169  1.00 96.44     0.131 A 
ATOM     31  CE2 TYR A 159       1.088  15.281   0.662  1.00 96.44     0.027 A 
ATOM     32  OH  TYR A 159       1.750  12.995   0.853  1.00 96.44    -0.190 OA
ATOM     33  CD2 TYR A 159       0.202  16.295   0.984  1.00 96.44    -0.002 A 
ENDBRANCH  26  27
ENDBRANCH  25  26
END_RES TYR A 159
BEGIN_RES PHE A 237
REMARK  2 active torsions:
REMARK  status: ('A' for Active; 'I' for Inactive)
REMARK   11  A    between atoms: CA   and  CB  
REMARK   12  A    between atoms: CB   and  CG  
ROOT
ATOM     34  CA  PHE A 237      -0.402  14.039   7.332  1.00 97.25     0.191 C 
ENDROOT
BRANCH  34  35
ATOM     35  CB  PHE A 237      -0.762  13.992   5.844  1.00 97.25     0.060 C 
BRANCH  35  36
ATOM     36  CG  PHE A 237      -2.043  13.263   5.550  1.00 97.25    -0.020 A 
ATOM     37  CD1 PHE A 237      -3.240  13.964   5.425  1.00 97.25    -0.004 A 
ATOM     38  CE1 PHE A 237      -4.431  13.298   5.149  1.00 97.25    -0.000 A 
ATOM     39  CZ  PHE A 237      -4.433  11.921   5.001  1.00 97.25    -0.000 A 
ATOM     40  CE2 PHE A 237      -3.250  11.213   5.124  1.00 97.25    -0.000 A 
ATOM     41  CD2 PHE A 237      -2.064  11.888   5.399  1.00 97.25    -0.004 A 
ENDBRANCH  35  36
ENDBRANCH  34  35
END_RES PHE A 237
ENDMDL
